@<TRIPOS>MOLECULE
RES
3072 0 1 0 1
SMALL
NO_CHARGES
@<TRIPOS>CRYSIN
   25.1570    25.1570    25.1570    90.0000    90.0000    90.0000  1  1
@<TRIPOS>ATOM
       1 1           -5.1440     7.9420    -0.1480 1             1 RES     
       2 1           -4.9890     8.0950    -0.5210 1             1 RES     
       3 1           -4.7550     8.5860    -0.5620 1             1 RES     
       4 1           -7.2120    -9.7120    10.1920 1             1 RES     
       5 1           -7.3770    -9.3750    10.2700 1             1 RES     
       6 1           -7.7230    -9.4450    10.3290 1             1 RES     
       7 1           -1.4390    -3.6180    -2.6090 1             1 RES     
       8 1           -1.6330    -3.5170    -2.2720 1             1 RES     
       9 1           -1.5730    -3.8480    -1.7390 1             1 RES     
      10 1           -8.6800   -10.6120    10.0020 1             1 RES     
      11 1           -9.0290   -10.7540     9.8160 1             1 RES     
      12 1           -9.3580   -10.6930    10.0540 1             1 RES     
      13 1          -10.7930    -5.5980     0.5070 1             1 RES     
      14 1          -11.0780    -5.9470     0.3770 1             1 RES     
      15 1          -11.2540    -5.8770    -0.0120 1             1 RES     
      16 1          -12.5580    -4.3820     3.9750 1             1 RES     
      17 1          -12.2610    -4.7480     4.0120 1             1 RES     
      18 1          -12.4610    -5.0920     4.0090 1             1 RES     
      19 1            8.7170    -4.1810     0.3740 1             1 RES     
      20 1            8.4840    -4.4360     0.7280 1             1 RES     
      21 1            8.7930    -4.4890     1.1640 1             1 RES     
      22 1           -0.1820    -6.6090    -7.8600 1             1 RES     
      23 1           -0.0780    -6.9120    -8.2740 1             1 RES     
      24 1           -0.4050    -7.0420    -8.5100 1             1 RES     
      25 1           -9.0360    -3.5810    -2.7470 1             1 RES     
      26 1           -9.4920    -3.2450    -2.9630 1             1 RES     
      27 1           -9.7810    -3.4570    -3.3430 1             1 RES     
      28 1          -12.3110    -5.9840     7.4170 1             1 RES     
      29 1          -12.4880    -6.3590     7.3820 1             1 RES     
      30 1          -13.0080    -6.3440     7.0770 1             1 RES     
      31 1           -2.5620    -8.5120    -6.3930 1             1 RES     
      32 1           -2.6120    -8.9350    -6.5060 1             1 RES     
      33 1           -2.4740    -9.3260    -6.1050 1             1 RES     
      34 1            4.9030     2.4090    -1.3010 1             1 RES     
      35 1            4.6850     1.8950    -1.0870 1             1 RES     
      36 1            4.6100     1.6150    -1.3350 1             1 RES     
      37 1            4.1930   -11.4290     2.5060 1             1 RES     
      38 1            3.7510   -11.4380     2.6670 1             1 RES     
      39 1            3.5030   -11.0770     2.5940 1             1 RES     
      40 1           -6.7320     0.3040     6.7280 1             1 RES     
      41 1           -6.4560     0.6170     6.5950 1             1 RES     
      42 1           -6.4650     0.6770     6.0100 1             1 RES     
      43 1            7.4620     6.9970     6.7960 1             1 RES     
      44 1            7.6470     7.3330     6.9850 1             1 RES     
      45 1            7.7260     7.7830     6.6380 1             1 RES     
      46 1            3.5550    10.9620   -10.6420 1             1 RES     
      47 1            3.7150    11.4330   -10.7300 1             1 RES     
      48 1            4.0360    11.4270   -11.1830 1             1 RES     
      49 1           -3.8620     7.1650    -5.2990 1             1 RES     
      50 1           -3.9030     7.5410    -5.3460 1             1 RES     
      51 1           -3.4740     7.8120    -5.4510 1             1 RES     
      52 1           11.5660     4.5640     4.2270 1             1 RES     
      53 1           11.8430     4.7450     4.5530 1             1 RES     
      54 1           12.0620     4.4250     4.7890 1             1 RES     
      55 1            1.9950     8.9510    -0.3850 1             1 RES     
      56 1            2.1310     9.3310    -0.1370 1             1 RES     
      57 1            2.3700     9.5130    -0.2740 1             1 RES     
      58 1           -7.3490     4.9280    12.2770 1             1 RES     
      59 1           -7.3220     5.0360    12.6440 1             1 RES     
      60 1           -7.6510     4.8950    12.8930 1             1 RES     
      61 1            4.4130     8.1400    12.0500 1             1 RES     
      62 1            4.4690     8.5300    11.8580 1             1 RES     
      63 1            4.1350     8.6710    11.5830 1             1 RES     
      64 1            0.9370   -12.0840     9.5430 1             1 RES     
      65 1            0.7880   -12.0400     9.0800 1             1 RES     
      66 1            1.0860   -11.8620     8.7870 1             1 RES     
      67 1            2.7520     7.3500    -7.4220 1             1 RES     
      68 1            2.6920     6.9700    -7.4800 1             1 RES     
      69 1            2.8300     6.8700    -7.7610 1             1 RES     
      70 1           -9.7380     5.5500    -7.1590 1             1 RES     
      71 1           -9.6670     5.2160    -6.8400 1             1 RES     
      72 1          -10.0720     4.9810    -6.6260 1             1 RES     
      73 1            1.6670    -1.3150     6.2300 1             1 RES     
      74 1            1.6340    -0.9810     6.6130 1             1 RES     
      75 1            1.2120    -0.8460     6.7130 1             1 RES     
      76 1           -4.9610    -8.2900    -8.7970 1             1 RES     
      77 1           -5.0730    -8.6930    -8.6190 1             1 RES     
      78 1           -5.1090    -8.6610    -8.2290 1             1 RES     
      79 1            7.1780     7.3530    -2.5030 1             1 RES     
      80 1            6.8860     7.3200    -2.8450 1             1 RES     
      81 1            6.6120     7.7410    -2.8240 1             1 RES     
      82 1           -3.3180     0.2820    -2.8810 1             1 RES     
      83 1           -3.3040     0.5930    -2.8070 1             1 RES     
      84 1           -3.3690     0.8340    -3.1550 1             1 RES     
      85 1          -11.8570     8.2610    -3.8890 1             1 RES     
      86 1          -12.3050     8.4600    -4.1110 1             1 RES     
      87 1          -12.4790     8.3050    -4.1660 1             1 RES     
      88 1           -7.4250    -5.4490     3.2070 1             1 RES     
      89 1           -7.6720    -5.6790     3.4930 1             1 RES     
      90 1           -7.9530    -5.9050     3.3530 1             1 RES     
      91 1           -6.5220     0.6740     1.8730 1             1 RES     
      92 1           -6.3650     0.6260     1.3600 1             1 RES     
      93 1           -5.8810     0.7740     1.3120 1             1 RES     
      94 1            0.8870     1.1590     4.7720 1             1 RES     
      95 1            0.8370     1.0230     5.0380 1             1 RES     
      96 1            1.1470     0.9370     5.2370 1             1 RES     
      97 1           11.8880     2.5000    -1.2650 1             1 RES     
      98 1           11.6400     2.6630    -1.0570 1             1 RES     
      99 1           10.9390     2.3040    -1.1680 1             1 RES     
     100 1           -8.5750     4.7870    12.0880 1             1 RES     
     101 1           -8.5950     4.5160    12.4900 1             1 RES     
     102 1           -8.8550     4.7810    12.9210 1             1 RES     
     103 1          -12.1320     2.2150    12.0000 1             1 RES     
     104 1          -12.1480     2.0480    11.5320 1             1 RES     
     105 1          -12.0870     2.5420    11.1630 1             1 RES     
     106 1            3.7380    -5.7710     8.8040 1             1 RES     
     107 1            3.2440    -5.9440     9.0550 1             1 RES     
     108 1            3.2450    -6.1090     9.5520 1             1 RES     
     109 1            4.8550    -7.6260     7.0780 1             1 RES     
     110 1            4.4070    -7.5780     6.9550 1             1 RES     
     111 1            4.3330    -7.7730     6.6050 1             1 RES     
     112 1          -10.7050   -10.2650    -1.9390 1             1 RES     
     113 1          -10.7700   -10.0150    -1.6650 1             1 RES     
     114 1          -10.9760    -9.8810    -1.7110 1             1 RES     
     115 1          -10.9960    -4.1480   -11.8280 1             1 RES     
     116 1          -11.1490    -4.5910   -11.6740 1             1 RES     
     117 1          -10.8330    -4.8470   -11.5850 1             1 RES     
     118 1            2.5940     2.8060     9.7510 1             1 RES     
     119 1            2.6910     2.5930    10.2190 1             1 RES     
     120 1            2.5030     2.2590    10.2710 1             1 RES     
     121 1           -2.7840     7.9360     4.0680 1             1 RES     
     122 1           -2.6680     8.1110     3.8420 1             1 RES     
     123 1           -2.3840     7.9060     3.5640 1             1 RES     
     124 1            1.6520    -2.1190    -7.7490 1             1 RES     
     125 1            1.9460    -2.2280    -7.9680 1             1 RES     
     126 1            1.8130    -2.3000    -8.3450 1             1 RES     
     127 1           -1.0470     0.5270     1.3480 1             1 RES     
     128 1           -0.7640     0.3040     1.6330 1             1 RES     
     129 1           -0.6920     0.5540     1.9690 1             1 RES     
     130 1            7.8460     5.1930    -0.2680 1             1 RES     
     131 1            7.8220     5.4380    -0.4270 1             1 RES     
     132 1            8.3250     5.6790    -0.4840 1             1 RES     
     133 1            5.4370    -2.3180   -11.3220 1             1 RES     
     134 1            5.2060    -2.7520   -11.3550 1             1 RES     
     135 1            5.3600    -3.0340   -11.1510 1             1 RES     
     136 1            9.6940    10.3780    -7.3840 1             1 RES     
     137 1            9.8970     9.8990    -7.2760 1             1 RES     
     138 1           10.3390     9.7400    -7.5320 1             1 RES     
     139 1           -8.7980    -2.5590     6.0850 1             1 RES     
     140 1           -9.0310    -2.6190     6.1500 1             1 RES     
     141 1           -9.1650    -2.4420     6.6590 1             1 RES     
     142 1           12.5160     5.7100     4.1950 1             1 RES     
     143 1           12.8310     5.5140     3.8420 1             1 RES     
     144 1           12.9400     5.0030     3.8310 1             1 RES     
     145 1            2.9310    11.3690    -8.9190 1             1 RES     
     146 1            2.6540    11.1530    -9.2570 1             1 RES     
     147 1            2.8350    11.2710    -9.8130 1             1 RES     
     148 1            3.9870    -7.5080     8.1720 1             1 RES     
     149 1            3.7790    -7.4720     8.5480 1             1 RES     
     150 1            3.4190    -7.5510     8.5250 1             1 RES     
     151 1            5.1820    -1.6890     1.1460 1             1 RES     
     152 1            5.2630    -2.0270     0.7780 1             1 RES     
     153 1            5.6670    -2.0630     0.6590 1             1 RES     
     154 1            7.4340    -6.3270    12.1700 1             1 RES     
     155 1            7.0870    -5.7900    12.3970 1             1 RES     
     156 1            7.2050    -5.3230    12.1950 1             1 RES     
     157 1           10.9050    -2.9130   -11.8940 1             1 RES     
     158 1           11.3080    -2.7430   -12.1290 1             1 RES     
     159 1           11.2800    -2.2100   -12.2610 1             1 RES     
     160 1           -4.0250    -2.7210     8.3620 1             1 RES     
     161 1           -4.5280    -2.5800     8.5550 1             1 RES     
     162 1           -4.7910    -2.5040     8.2360 1             1 RES     
     163 1           -5.8580     0.3800    -0.2180 1             1 RES     
     164 1           -5.6980     0.8150    -0.0980 1             1 RES     
     165 1           -5.4900     0.8260     0.3360 1             1 RES     
     166 1            4.5260    -2.2630    -7.3760 1             1 RES     
     167 1            4.7600    -2.4880    -7.7320 1             1 RES     
     168 1            4.9550    -2.2430    -7.9580 1             1 RES     
     169 1           -9.2260    -1.7780     3.4900 1             1 RES     
     170 1           -8.9590    -1.9870     3.1860 1             1 RES     
     171 1           -8.9310    -2.4130     3.1840 1             1 RES     
     172 1            5.6530    -2.3910    -2.0760 1             1 RES     
     173 1            5.1880    -2.4180    -2.0030 1             1 RES     
     174 1            4.9240    -2.0300    -2.0130 1             1 RES     
     175 1           -2.0900     7.7590    -6.2890 1             1 RES     
     176 1           -2.4140     7.4380    -6.3450 1             1 RES     
     177 1           -2.8600     7.6060    -6.3780 1             1 RES     
     178 1           -1.1000    -4.3620     4.4390 1             1 RES     
     179 1           -0.6690    -4.6920     4.5540 1             1 RES     
     180 1           -0.1650    -4.4070     4.5220 1             1 RES     
     181 1            4.7470     9.2380   -11.5210 1             1 RES     
     182 1            4.4410     9.3750   -11.7270 1             1 RES     
     183 1            4.3570     9.7810   -11.7580 1             1 RES     
     184 1            7.8400    11.0280     1.4740 1             1 RES     
     185 1            7.9040    10.4180     1.4550 1             1 RES     
     186 1            7.7960    10.2420     1.1760 1             1 RES     
     187 1            2.6230    -5.1710   -12.3130 1             1 RES     
     188 1            2.5940    -5.1510   -11.8180 1             1 RES     
     189 1            2.9810    -5.2710   -11.6540 1             1 RES     
     190 1           -6.0220     2.2180    -4.1180 1             1 RES     
     191 1           -5.6130     2.0080    -3.9500 1             1 RES     
     192 1           -5.1490     2.1180    -4.2520 1             1 RES     
     193 1          -10.6780     7.6160     0.0560 1             1 RES     
     194 1          -10.4720     7.9640     0.1690 1             1 RES     
     195 1          -10.5660     8.3440     0.0060 1             1 RES     
     196 1           -5.5190     1.2970    -1.5600 1             1 RES     
     197 1           -5.9700     1.4860    -1.3410 1             1 RES     
     198 1           -6.0470     1.6900    -1.4150 1             1 RES     
     199 1            9.8730    11.6060    -5.9070 1             1 RES     
     200 1            9.8900    11.6640    -5.5390 1             1 RES     
     201 1           10.2850    11.9330    -5.4170 1             1 RES     
     202 1          -11.7510   -10.9090     3.3110 1             1 RES     
     203 1          -11.4290   -10.7130     3.1860 1             1 RES     
     204 1          -11.2880   -10.7810     2.8560 1             1 RES     
     205 1           -2.6700    -0.9870     7.6420 1             1 RES     
     206 1           -2.4670    -1.2970     7.3210 1             1 RES     
     207 1           -2.4750    -1.1710     6.8780 1             1 RES     
     208 1           -6.1610    12.5210     0.7130 1             1 RES     
     209 1           -6.0880    12.8730     0.9560 1             1 RES     
     210 1           -5.8920    13.1850     0.7680 1             1 RES     
     211 1           -3.9750   -10.5100     7.0180 1             1 RES     
     212 1           -3.9860   -10.6820     7.3420 1             1 RES     
     213 1           -4.4980   -10.9690     7.4950 1             1 RES     
     214 1           -2.6230   -12.1090     7.7970 1             1 RES     
     215 1           -2.5170   -11.7180     7.4070 1             1 RES     
     216 1           -2.8600   -11.2810     7.4870 1             1 RES     
     217 1            1.9680     9.9740    -5.5520 1             1 RES     
     218 1            2.1840    10.2660    -5.3180 1             1 RES     
     219 1            2.4330    10.7070    -5.7560 1             1 RES     
     220 1            9.3680    -9.4880   -11.2830 1             1 RES     
     221 1            9.3180    -9.3230   -11.5980 1             1 RES     
     222 1            9.4430    -8.9760   -11.6200 1             1 RES     
     223 1           -2.9550     3.0600     9.9050 1             1 RES     
     224 1           -2.8640     2.7590    10.1590 1             1 RES     
     225 1           -2.7570     2.3260     9.9580 1             1 RES     
     226 1            9.3640    -3.8970    -9.8870 1             1 RES     
     227 1            9.7150    -3.8550   -10.3210 1             1 RES     
     228 1            9.9110    -4.1690   -10.4170 1             1 RES     
     229 1           11.0260    11.4480     7.8760 1             1 RES     
     230 1           11.1310    11.1060     8.1340 1             1 RES     
     231 1           11.3480    11.2110     8.4480 1             1 RES     
     232 1          -10.4820    -7.8030    -5.3540 1             1 RES     
     233 1          -10.8020    -7.4980    -5.3080 1             1 RES     
     234 1          -10.8420    -7.2760    -5.6590 1             1 RES     
     235 1           -6.6170     3.6930   -11.0770 1             1 RES     
     236 1           -6.3310     3.7860   -10.8090 1             1 RES     
     237 1           -5.9660     3.8250   -10.9720 1             1 RES     
     238 1            0.6560    -7.5210     3.6710 1             1 RES     
     239 1            0.5690    -7.2120     3.3940 1             1 RES     
     240 1            0.4620    -7.3430     2.9750 1             1 RES     
     241 1            2.7530     8.9880     1.3050 1             1 RES     
     242 1            2.3710     9.1820     1.4070 1             1 RES     
     243 1            2.1860     9.0420     1.8970 1             1 RES     
     244 1            5.3150    -7.1530   -10.8900 1             1 RES     
     245 1            5.0390    -7.3550   -10.4760 1             1 RES     
     246 1            5.1870    -7.2420   -10.0030 1             1 RES     
     247 1            5.5130    -5.4720     3.0600 1             1 RES     
     248 1            5.2180    -5.2360     3.1560 1             1 RES     
     249 1            5.3540    -4.7690     3.4780 1             1 RES     
     250 1            5.0190     9.4540    -3.0680 1             1 RES     
     251 1            5.4870     9.4610    -3.0910 1             1 RES     
     252 1            5.6800     9.9100    -3.0400 1             1 RES     
     253 1           -8.2550    -8.8610     5.8580 1             1 RES     
     254 1           -8.0570    -9.1880     5.6450 1             1 RES     
     255 1           -7.6370    -9.1710     5.6860 1             1 RES     
     256 1           -4.1410     9.0490    -8.4670 1             1 RES     
     257 1           -4.5180     9.0230    -8.1220 1             1 RES     
     258 1           -4.4160     8.6150    -7.7400 1             1 RES     
     259 1           -0.2160   -11.0450    11.4530 1             1 RES     
     260 1           -0.1880   -11.0050    11.0650 1             1 RES     
     261 1           -0.0860   -11.3810    10.7850 1             1 RES     
     262 1           -5.8650    -6.9910    -3.0050 1             1 RES     
     263 1           -5.5440    -6.8270    -2.8530 1             1 RES     
     264 1           -5.2090    -6.8540    -3.1450 1             1 RES     
     265 1           -8.6040     7.7660    -2.1100 1             1 RES     
     266 1           -8.2920     7.3200    -2.0940 1             1 RES     
     267 1           -8.5500     6.8850    -1.7980 1             1 RES     
     268 1           11.2230   -11.5780    12.2400 1             1 RES     
     269 1           11.0870   -11.4930    11.6990 1             1 RES     
     270 1           11.0790   -11.9020    11.5210 1             1 RES     
     271 1           -4.8000   -11.0060   -11.2650 1             1 RES     
     272 1           -4.3670   -10.9950   -11.4350 1             1 RES     
     273 1           -4.3060   -10.6840   -11.6840 1             1 RES     
     274 1            3.6420    -7.6860     1.6680 1             1 RES     
     275 1            3.6210    -7.7880     1.1860 1             1 RES     
     276 1            3.9490    -7.9180     1.0750 1             1 RES     
     277 1           -2.5780    -8.7640     0.1650 1             1 RES     
     278 1           -2.5720    -8.2910     0.4970 1             1 RES     
     279 1           -2.9230    -7.9880     0.4160 1             1 RES     
     280 1            2.6760    -8.4300    -8.9040 1             1 RES     
     281 1            2.4470    -8.4550    -8.3090 1             1 RES     
     282 1            2.8640    -8.3300    -7.9280 1             1 RES     
     283 1            4.4550    11.8030     8.9020 1             1 RES     
     284 1            4.1990    11.6440     8.9610 1             1 RES     
     285 1            3.9580    11.8170     9.1470 1             1 RES     
     286 1           11.9950    -4.7060   -10.4390 1             1 RES     
     287 1           11.6650    -4.8210   -10.2590 1             1 RES     
     288 1           11.7060    -4.8190    -9.7090 1             1 RES     
     289 1           -2.3040     6.0110     4.8610 1             1 RES     
     290 1           -2.6410     5.7590     4.6770 1             1 RES     
     291 1           -2.9990     5.7200     5.0700 1             1 RES     
     292 1           -0.3700    -7.0950    -1.9930 1             1 RES     
     293 1           -0.1730    -7.3840    -1.8820 1             1 RES     
     294 1           -0.1060    -7.4720    -1.4750 1             1 RES     
     295 1            9.6900    -1.6190    -9.3450 1             1 RES     
     296 1            9.6970    -1.5850    -9.8150 1             1 RES     
     297 1            9.9590    -1.8580    -9.9410 1             1 RES     
     298 1            4.5430    -7.3580    10.9170 1             1 RES     
     299 1            4.4700    -6.7820    10.8870 1             1 RES     
     300 1            4.1450    -6.6500    10.6750 1             1 RES     
     301 1            7.4560     0.3780    -1.9330 1             1 RES     
     302 1            7.2630     0.1230    -1.8300 1             1 RES     
     303 1            7.4030    -0.1730    -1.7460 1             1 RES     
     304 1            9.3440     9.0120     7.2640 1             1 RES     
     305 1            9.0760     8.7430     7.0600 1             1 RES     
     306 1            8.6380     8.8970     6.9700 1             1 RES     
     307 1            4.0420    -9.8910    -0.0710 1             1 RES     
     308 1            4.2250   -10.0950    -0.4220 1             1 RES     
     309 1            4.7200   -10.2380    -0.3150 1             1 RES     
     310 1           -8.0940     2.3080     7.4010 1             1 RES     
     311 1           -7.7890     2.0280     7.6060 1             1 RES     
     312 1           -7.7440     1.5340     7.4120 1             1 RES     
     313 1          -10.3260    12.3160     7.0630 1             1 RES     
     314 1          -10.6490    12.2440     7.2580 1             1 RES     
     315 1          -10.6490    11.9460     7.4940 1             1 RES     
     316 1           10.0980   -10.2720    10.6580 1             1 RES     
     317 1           10.1510   -10.5670    10.9420 1             1 RES     
     318 1           10.5520   -10.7210    11.0030 1             1 RES     
     319 1            9.8280    -4.3960    -2.2000 1             1 RES     
     320 1            9.7120    -4.7490    -1.9420 1             1 RES     
     321 1            9.3440    -4.7570    -1.8650 1             1 RES     
     322 1           -4.1050     0.1710     3.6340 1             1 RES     
     323 1           -4.0200     0.0220     3.2670 1             1 RES     
     324 1           -3.6700     0.0500     3.2080 1             1 RES     
     325 1            4.6880   -12.2030     7.5030 1             1 RES     
     326 1            4.5830   -11.8760     7.2920 1             1 RES     
     327 1            4.0690   -11.8640     7.0340 1             1 RES     
     328 1            0.6710    -0.9830     1.0070 1             1 RES     
     329 1            0.8520    -1.2390     1.5910 1             1 RES     
     330 1            0.9360    -1.6660     1.6290 1             1 RES     
     331 1            0.7740    -9.2800     6.2270 1             1 RES     
     332 1            1.0620    -8.9500     6.3400 1             1 RES     
     333 1            0.8210    -8.5490     6.5130 1             1 RES     
     334 1           -6.3950    -3.1670    -3.9760 1             1 RES     
     335 1           -6.6750    -3.0200    -4.2250 1             1 RES     
     336 1           -6.7720    -3.3020    -4.5960 1             1 RES     
     337 1            9.8110     3.0420    -3.5610 1             1 RES     
     338 1            9.3600     3.1170    -3.5330 1             1 RES     
     339 1            9.1720     2.9990    -3.8800 1             1 RES     
     340 1           11.9120    -8.5560     3.7750 1             1 RES     
     341 1           11.5880    -8.5680     3.9050 1             1 RES     
     342 1           11.3460    -8.9680     3.7050 1             1 RES     
     343 1            2.8940    -1.5530    11.0540 1             1 RES     
     344 1            2.6980    -1.6150    10.5310 1             1 RES     
     345 1            2.8460    -1.8710    10.3670 1             1 RES     
     346 1            7.2830     1.3140    -4.9600 1             1 RES     
     347 1            7.2780     0.9060    -5.2700 1             1 RES     
     348 1            7.0590     0.4250    -5.0510 1             1 RES     
     349 1            0.7220    -0.8690    -3.6100 1             1 RES     
     350 1            0.5930    -1.3360    -3.6840 1             1 RES     
     351 1            0.7410    -1.6620    -3.2840 1             1 RES     
     352 1           -3.6510     9.2300    -3.2700 1             1 RES     
     353 1           -3.1710     9.3410    -3.3700 1             1 RES     
     354 1           -3.1000     9.7770    -3.4530 1             1 RES     
     355 1           12.5730    -5.7930   -10.4270 1             1 RES     
     356 1           13.0030    -5.8270    -9.9820 1             1 RES     
     357 1           13.0100    -5.4390    -9.5950 1             1 RES     
     358 1            7.7090     6.1230    10.8450 1             1 RES     
     359 1            7.2570     6.1000    10.6210 1             1 RES     
     360 1            7.1690     6.5330    10.3190 1             1 RES     
     361 1           -8.8150    -1.2250     1.2070 1             1 RES     
     362 1           -9.1130    -1.5560     1.4210 1             1 RES     
     363 1           -9.2480    -1.8710     1.1430 1             1 RES     
     364 1           -6.0070     8.5130   -11.8480 1             1 RES     
     365 1           -6.3420     8.7690   -12.1830 1             1 RES     
     366 1           -6.2770     8.7380   -12.5920 1             1 RES     
     367 1           -1.5670     2.0070     8.1110 1             1 RES     
     368 1           -2.0050     2.1720     8.0660 1             1 RES     
     369 1           -2.2950     1.9820     7.5600 1             1 RES     
     370 1           -2.0710     4.8270     9.2940 1             1 RES     
     371 1           -2.3680     5.1450     9.1300 1             1 RES     
     372 1           -2.6200     5.0020     8.7780 1             1 RES     
     373 1          -12.2300     4.7740    -0.5120 1             1 RES     
     374 1          -12.7880     4.8220    -0.6650 1             1 RES     
     375 1          -13.0240     4.3420    -0.8330 1             1 RES     
     376 1            7.4650    -6.4040    10.9920 1             1 RES     
     377 1            7.5880    -6.0220    10.9520 1             1 RES     
     378 1            7.4790    -5.8130    11.2410 1             1 RES     
     379 1           -6.9470     9.6460    11.6900 1             1 RES     
     380 1           -6.7240     9.4960    11.3450 1             1 RES     
     381 1           -6.2470     9.4890    11.3800 1             1 RES     
     382 1            4.0130     7.9240    -1.1400 1             1 RES     
     383 1            4.1420     7.5980    -0.7090 1             1 RES     
     384 1            4.1840     7.0140    -0.9040 1             1 RES     
     385 1           -7.6020     3.5420   -12.3770 1             1 RES     
     386 1           -7.5120     3.7740   -11.9540 1             1 RES     
     387 1           -7.8680     3.9420   -11.8490 1             1 RES     
     388 1           -3.0920    -2.7540    -7.7920 1             1 RES     
     389 1           -2.6430    -2.9430    -7.9050 1             1 RES     
     390 1           -2.4010    -2.8920    -7.6600 1             1 RES     
     391 1           11.6150    -0.0960    -4.6580 1             1 RES     
     392 1           11.7000     0.3180    -4.8320 1             1 RES     
     393 1           11.4140     0.4460    -5.1270 1             1 RES     
     394 1           11.0320    -8.1910    -0.7810 1             1 RES     
     395 1           11.2450    -8.0370    -0.7140 1             1 RES     
     396 1           11.6290    -8.0280    -1.1120 1             1 RES     
     397 1           -6.9090    -9.7310    -4.0350 1             1 RES     
     398 1           -7.4320    -9.5980    -4.1490 1             1 RES     
     399 1           -7.6850    -9.6430    -3.7940 1             1 RES     
     400 1            3.5100    -9.7170   -10.8970 1             1 RES     
     401 1            3.3590   -10.2520   -10.8880 1             1 RES     
     402 1            3.4910   -10.3820   -11.0820 1             1 RES     
     403 1           -9.3070    -1.9720    -3.6160 1             1 RES     
     404 1           -9.3270    -1.8900    -4.1360 1             1 RES     
     405 1           -9.4160    -1.4480    -4.2670 1             1 RES     
     406 1           -0.8930    -1.1440     8.4940 1             1 RES     
     407 1           -0.7000    -1.0680     8.7400 1             1 RES     
     408 1           -0.3860    -0.7020     8.6100 1             1 RES     
     409 1           -2.5060    -7.8120    -2.7500 1             1 RES     
     410 1           -2.5410    -7.4310    -2.4020 1             1 RES     
     411 1           -2.4020    -7.5200    -2.0420 1             1 RES     
     412 1           -3.7840    -4.0840    -3.4820 1             1 RES     
     413 1           -3.9990    -4.0450    -3.8370 1             1 RES     
     414 1           -4.4830    -4.0550    -3.7490 1             1 RES     
     415 1           10.4850     7.3830    10.0140 1             1 RES     
     416 1           10.6210     7.0320    10.4790 1             1 RES     
     417 1           10.2130     6.9780    10.8840 1             1 RES     
     418 1           10.9580    -1.6270    -3.7960 1             1 RES     
     419 1           10.9400    -1.1930    -3.5060 1             1 RES     
     420 1           10.5780    -0.7870    -3.6840 1             1 RES     
     421 1            8.8050     2.7960     9.4660 1             1 RES     
     422 1            8.9710     3.1530     9.7000 1             1 RES     
     423 1            8.8300     3.1940    10.0190 1             1 RES     
     424 1           11.1140     3.4030    -0.6110 1             1 RES     
     425 1           11.0710     3.7580    -0.8280 1             1 RES     
     426 1           11.0720     4.0420    -0.6270 1             1 RES     
     427 1            3.3720    -8.9810     1.9840 1             1 RES     
     428 1            3.0880    -9.3220     1.8030 1             1 RES     
     429 1            2.9740    -9.2510     1.4880 1             1 RES     
     430 1            7.3530    -0.6790    -6.2610 1             1 RES     
     431 1            7.0150    -0.8190    -5.7200 1             1 RES     
     432 1            6.6190    -0.6080    -5.7130 1             1 RES     
     433 1           10.9970    -1.3640    -8.5990 1             1 RES     
     434 1           11.1100    -1.6880    -9.0150 1             1 RES     
     435 1           11.5020    -1.9520    -8.9510 1             1 RES     
     436 1           -3.3950     2.2300     6.7420 1             1 RES     
     437 1           -3.3410     2.5730     6.8230 1             1 RES     
     438 1           -3.5280     2.6660     7.3110 1             1 RES     
     439 1          -12.3180   -10.8080    -8.0770 1             1 RES     
     440 1          -12.4220   -10.3600    -7.8240 1             1 RES     
     441 1          -12.6490   -10.3970    -7.5090 1             1 RES     
     442 1            0.0170     2.6290     2.1400 1             1 RES     
     443 1           -0.2670     2.8740     1.8240 1             1 RES     
     444 1           -0.4950     2.6330     1.4380 1             1 RES     
     445 1           10.9280    -9.5450    -2.2490 1             1 RES     
     446 1           10.5920    -9.3800    -1.9680 1             1 RES     
     447 1           10.6520    -9.4030    -1.4640 1             1 RES     
     448 1           -1.1110     9.2220     9.2680 1             1 RES     
     449 1           -1.2200     8.7630     9.3230 1             1 RES     
     450 1           -1.5500     8.6940     9.7100 1             1 RES     
     451 1          -10.5620     9.2460   -11.9000 1             1 RES     
     452 1          -10.7750     9.5880   -11.9460 1             1 RES     
     453 1          -11.2130     9.5190   -11.9750 1             1 RES     
     454 1          -10.2440     5.8370    -8.1480 1             1 RES     
     455 1          -10.5450     5.8160    -8.5690 1             1 RES     
     456 1          -10.3090     5.9450    -8.9260 1             1 RES     
     457 1           -1.8200     4.5690    -6.2800 1             1 RES     
     458 1           -2.1550     4.4400    -6.6110 1             1 RES     
     459 1           -2.0880     4.0280    -6.7870 1             1 RES     
     460 1           -5.9770    -6.5300   -12.5210 1             1 RES     
     461 1           -5.3870    -6.3910   -12.6120 1             1 RES     
     462 1           -5.1940    -6.5700   -12.9720 1             1 RES     
     463 1           -5.9720    -4.5110    -2.1790 1             1 RES     
     464 1           -5.6560    -4.0600    -2.2390 1             1 RES     
     465 1           -5.7710    -3.7070    -1.8720 1             1 RES     
     466 1           -3.3760   -10.0730     3.1670 1             1 RES     
     467 1           -3.3570   -10.4020     2.9340 1             1 RES     
     468 1           -3.0890   -10.6140     2.9750 1             1 RES     
     469 1           -9.8940    11.3540     5.7470 1             1 RES     
     470 1           -9.8960    11.4980     6.0820 1             1 RES     
     471 1           -9.7230    12.0070     6.0980 1             1 RES     
     472 1           -4.3280     0.5520     5.4600 1             1 RES     
     473 1           -4.5230     0.9780     5.3810 1             1 RES     
     474 1           -4.8610     1.1390     5.7450 1             1 RES     
     475 1           -2.7310     7.4560    -9.7140 1             1 RES     
     476 1           -2.8810     7.6570    -9.3060 1             1 RES     
     477 1           -2.7200     7.4750    -8.9410 1             1 RES     
     478 1           -5.9760    -0.0400   -12.3430 1             1 RES     
     479 1           -6.3530     0.1190   -12.2020 1             1 RES     
     480 1           -6.6170     0.0190   -12.4650 1             1 RES     
     481 1            3.8070    -8.9670    -7.5360 1             1 RES     
     482 1            3.5100    -8.8470    -7.1900 1             1 RES     
     483 1            3.4080    -9.0780    -6.8570 1             1 RES     
     484 1           -7.9490    -0.7830     6.8280 1             1 RES     
     485 1           -7.7180    -0.3590     7.1280 1             1 RES     
     486 1           -7.5690    -0.5020     7.6140 1             1 RES     
     487 1           -6.7420    -9.7040     7.3300 1             1 RES     
     488 1           -6.8300    -9.3130     7.4750 1             1 RES     
     489 1           -7.0470    -9.2750     7.7980 1             1 RES     
     490 1          -11.3160    12.4900     3.9950 1             1 RES     
     491 1          -11.2520    11.9980     4.1400 1             1 RES     
     492 1          -10.9210    11.9480     4.4460 1             1 RES     
     493 1            5.8800    -2.0720    -3.5010 1             1 RES     
     494 1            5.8920    -2.4630    -3.1420 1             1 RES     
     495 1            6.4240    -2.6880    -3.0000 1             1 RES     
     496 1           11.7610     5.7810     7.6220 1             1 RES     
     497 1           11.3660     5.5820     7.5010 1             1 RES     
     498 1           11.3650     5.2130     7.5640 1             1 RES     
     499 1           -6.0130     6.3100    11.7250 1             1 RES     
     500 1           -6.2900     6.6020    11.7660 1             1 RES     
     501 1           -6.7630     6.4710    12.0050 1             1 RES     
     502 1            3.1640    -4.8580    -5.6620 1             1 RES     
     503 1            3.3950    -5.2680    -5.8640 1             1 RES     
     504 1            3.8450    -5.2000    -6.2260 1             1 RES     
     505 1            5.7930    -9.0450    -1.3390 1             1 RES     
     506 1            5.5970    -8.7320    -1.0780 1             1 RES     
     507 1            5.1840    -8.4650    -1.2920 1             1 RES     
     508 1            8.4290    -6.8760    12.2490 1             1 RES     
     509 1            8.5980    -7.2590    12.0790 1             1 RES     
     510 1            8.9620    -7.4430    12.3970 1             1 RES     
     511 1           -1.9400   -10.5720   -11.5670 1             1 RES     
     512 1           -1.7390   -10.9070   -11.3210 1             1 RES     
     513 1           -1.3990   -11.0320   -11.4200 1             1 RES     
     514 1           11.1540     9.6660    -3.4070 1             1 RES     
     515 1           11.4050     9.4250    -3.0870 1             1 RES     
     516 1           11.8580     9.6300    -3.0090 1             1 RES     
     517 1           -8.3230    -4.4500    -1.2550 1             1 RES     
     518 1           -8.2750    -4.9130    -1.6270 1             1 RES     
     519 1           -8.3060    -5.3230    -1.4520 1             1 RES     
     520 1           -4.8290     6.9520     6.9740 1             1 RES     
     521 1           -4.3590     7.1090     6.8590 1             1 RES     
     522 1           -4.2290     7.5870     6.8890 1             1 RES     
     523 1            7.1070     1.5610    10.0700 1             1 RES     
     524 1            6.7450     1.2300    10.1830 1             1 RES     
     525 1            6.4720     1.2080     9.9640 1             1 RES     
     526 1          -10.3880     7.7760    -9.7510 1             1 RES     
     527 1          -10.6730     7.5600    -9.9780 1             1 RES     
     528 1          -10.5560     7.5040   -10.3760 1             1 RES     
     529 1          -12.5650    -2.9400     6.5060 1             1 RES     
     530 1          -12.7120    -3.4200     6.3990 1             1 RES     
     531 1          -12.3580    -3.6920     6.3900 1             1 RES     
     532 1            8.0270     1.8110     7.6870 1             1 RES     
     533 1            8.0800     1.2180     7.5900 1             1 RES     
     534 1            7.7190     1.0240     7.4850 1             1 RES     
     535 1            9.8760    -0.3640    -9.6870 1             1 RES     
     536 1           10.4810    -0.3030    -9.5680 1             1 RES     
     537 1           10.7300    -0.3790    -9.8920 1             1 RES     
     538 1           -9.9500    10.0370     9.5530 1             1 RES     
     539 1          -10.2000     9.7420     9.3230 1             1 RES     
     540 1          -10.1610     9.1030     9.5360 1             1 RES     
     541 1           10.6750     2.6600    -8.7580 1             1 RES     
     542 1           10.8510     2.9370    -8.4700 1             1 RES     
     543 1           11.1590     2.7270    -8.1190 1             1 RES     
     544 1           -3.4970    -3.0220    -4.1050 1             1 RES     
     545 1           -3.0820    -3.1790    -4.1890 1             1 RES     
     546 1           -2.8020    -2.9640    -3.9440 1             1 RES     
     547 1            7.2930     1.0720     3.2460 1             1 RES     
     548 1            7.2920     1.1980     3.6650 1             1 RES     
     549 1            6.8440     1.4870     3.8220 1             1 RES     
     550 1            5.7620     6.3460    -7.9700 1             1 RES     
     551 1            6.1930     6.3670    -8.2010 1             1 RES     
     552 1            6.2800     5.9770    -8.4540 1             1 RES     
     553 1            8.2140    -3.6140    -2.4870 1             1 RES     
     554 1            7.9880    -3.7370    -2.7990 1             1 RES     
     555 1            7.8920    -3.3510    -3.1360 1             1 RES     
     556 1          -10.1950     2.0250     4.9920 1             1 RES     
     557 1          -10.0040     1.7320     4.6750 1             1 RES     
     558 1          -10.0880     1.8340     4.1280 1             1 RES     
     559 1          -11.9180    -7.1090    -0.9060 1             1 RES     
     560 1          -11.5370    -7.3850    -1.1030 1             1 RES     
     561 1          -11.1030    -7.1430    -1.1560 1             1 RES     
     562 1           12.0540     3.9340   -11.0510 1             1 RES     
     563 1           11.9230     4.0980   -10.7470 1             1 RES     
     564 1           12.1270     4.4980   -10.5520 1             1 RES     
     565 1           -0.3370    -2.8550    -2.0240 1             1 RES     
     566 1           -0.3990    -2.7860    -2.5130 1             1 RES     
     567 1           -0.4710    -3.0530    -2.7000 1             1 RES     
     568 1           -9.6720    -3.4920    -0.8330 1             1 RES     
     569 1           -9.5710    -3.7450    -0.4300 1             1 RES     
     570 1           -9.1790    -3.5670    -0.1550 1             1 RES     
     571 1            0.5010     7.0620    -2.0100 1             1 RES     
     572 1            0.3860     6.8200    -2.3750 1             1 RES     
     573 1            0.7840     6.5320    -2.5650 1             1 RES     
     574 1            0.7380    -6.0920     6.4520 1             1 RES     
     575 1            0.4320    -5.9380     5.9900 1             1 RES     
     576 1            0.0930    -6.2180     5.8830 1             1 RES     
     577 1            2.3570    -5.4640     5.9660 1             1 RES     
     578 1            2.4400    -5.8700     6.2040 1             1 RES     
     579 1            2.8940    -5.9540     6.2090 1             1 RES     
     580 1           -9.7710     0.5790    -1.6750 1             1 RES     
     581 1           -9.8340     0.1180    -1.2170 1             1 RES     
     582 1          -10.3060     0.2210    -0.9030 1             1 RES     
     583 1            8.4180     5.1310    -3.0410 1             1 RES     
     584 1            8.6220     4.9420    -3.2830 1             1 RES     
     585 1            8.7170     4.4300    -3.1380 1             1 RES     
     586 1          -12.0920     0.4620   -11.7570 1             1 RES     
     587 1          -12.1020    -0.0320   -11.4710 1             1 RES     
     588 1          -11.7520    -0.0830   -11.1060 1             1 RES     
     589 1            6.0070    -2.6260     4.9320 1             1 RES     
     590 1            6.3910    -2.7030     4.5570 1             1 RES     
     591 1            6.2890    -3.0650     4.2600 1             1 RES     
     592 1            7.0890     2.2900     6.9810 1             1 RES     
     593 1            7.0330     2.3050     7.2770 1             1 RES     
     594 1            6.5390     2.4000     7.3770 1             1 RES     
     595 1           -8.9000    -1.3100    -8.1430 1             1 RES     
     596 1           -8.9840    -1.1430    -8.5050 1             1 RES     
     597 1           -8.7090    -1.1000    -8.7990 1             1 RES     
     598 1            9.4200    -2.7450   -11.5350 1             1 RES     
     599 1            9.3040    -2.5260   -11.2350 1             1 RES     
     600 1            9.4040    -2.7230   -10.7310 1             1 RES     
     601 1            3.3630    10.8730     8.3680 1             1 RES     
     602 1            3.7160    10.7440     8.6050 1             1 RES     
     603 1            4.2100    10.7590     8.3360 1             1 RES     
     604 1           -8.0600    -7.1960     3.1030 1             1 RES     
     605 1           -8.6020    -7.0530     2.9100 1             1 RES     
     606 1           -8.8050    -6.6450     3.1050 1             1 RES     
     607 1           10.7600    -5.5180   -10.8440 1             1 RES     
     608 1           10.7570    -5.0260   -11.1110 1             1 RES     
     609 1           10.8660    -5.0390   -11.5340 1             1 RES     
     610 1           -6.6260   -10.1510     3.9400 1             1 RES     
     611 1           -6.3540   -10.1750     4.3050 1             1 RES     
     612 1           -5.9630   -10.4870     4.2320 1             1 RES     
     613 1            9.7940     8.2950     9.2070 1             1 RES     
     614 1            9.4940     8.1910     9.0650 1             1 RES     
     615 1            9.4430     8.3100     8.6990 1             1 RES     
     616 1            1.9890    -2.1520    -1.4400 1             1 RES     
     617 1            2.0190    -2.6210    -1.2300 1             1 RES     
     618 1            2.0760    -2.6320    -0.9400 1             1 RES     
     619 1           -9.4460    11.2730    -3.1640 1             1 RES     
     620 1           -9.2450    11.6890    -3.4170 1             1 RES     
     621 1           -9.4880    11.8870    -3.6480 1             1 RES     
     622 1            1.4670    -8.2730    11.1710 1             1 RES     
     623 1            1.6750    -7.8720    11.2840 1             1 RES     
     624 1            2.1920    -7.8640    11.2700 1             1 RES     
     625 1           -9.2820    -1.8000    10.1860 1             1 RES     
     626 1           -8.9640    -1.9170    10.0170 1             1 RES     
     627 1           -8.8660    -1.6800     9.6070 1             1 RES     
     628 1            8.3970     1.7650     6.6150 1             1 RES     
     629 1            8.2600     1.9240     6.4160 1             1 RES     
     630 1            8.4940     2.0530     6.1710 1             1 RES     
     631 1            5.4430   -11.2240     9.0390 1             1 RES     
     632 1            5.7590   -10.7630     8.8810 1             1 RES     
     633 1            5.9130   -10.4640     9.2910 1             1 RES     
     634 1           -4.7970     4.3590     8.9450 1             1 RES     
     635 1           -5.0680     4.6970     8.7900 1             1 RES     
     636 1           -4.9090     4.9210     8.5750 1             1 RES     
     637 1            7.2600    11.9240    -1.7180 1             1 RES     
     638 1            6.7830    11.7900    -1.7550 1             1 RES     
     639 1            6.4860    12.1880    -1.7030 1             1 RES     
     640 1            4.0220    10.6880     2.5650 1             1 RES     
     641 1            3.6790    10.8050     2.6860 1             1 RES     
     642 1            3.6900    11.0000     3.0750 1             1 RES     
     643 1           -4.3590     5.8190    -9.6720 1             1 RES     
     644 1           -4.1000     5.8810    -9.5040 1             1 RES     
     645 1           -4.1650     6.0690    -9.2660 1             1 RES     
     646 1           -4.0190    -9.3400    10.0030 1             1 RES     
     647 1           -4.3150    -9.4180     9.6410 1             1 RES     
     648 1           -4.7270    -9.1880     9.6850 1             1 RES     
     649 1          -10.0280    11.1090     7.1340 1             1 RES     
     650 1          -10.4770    10.8520     7.3100 1             1 RES     
     651 1          -10.5480    10.8230     7.8380 1             1 RES     
     652 1           -3.1150     9.8510    -8.4430 1             1 RES     
     653 1           -3.5220     9.8800    -8.2000 1             1 RES     
     654 1           -3.8280    10.3200    -8.4300 1             1 RES     
     655 1            6.7940     4.8940     1.0030 1             1 RES     
     656 1            6.3600     5.0990     0.9830 1             1 RES     
     657 1            6.1920     5.3090     1.4380 1             1 RES     
     658 1          -11.2660     8.7800     6.5910 1             1 RES     
     659 1          -11.4720     8.5460     6.2540 1             1 RES     
     660 1          -11.3100     8.5850     6.0270 1             1 RES     
     661 1          -10.0030    -8.2640   -11.9960 1             1 RES     
     662 1          -10.3040    -8.3960   -11.7960 1             1 RES     
     663 1          -10.6310    -8.7070   -12.0620 1             1 RES     
     664 1          -11.0650    -9.6640    -2.8980 1             1 RES     
     665 1          -11.4800   -10.0420    -3.0060 1             1 RES     
     666 1          -11.3750   -10.3490    -2.9760 1             1 RES     
     667 1            6.6400     1.6820    -9.4990 1             1 RES     
     668 1            7.0680     1.5400    -9.5800 1             1 RES     
     669 1            7.2320     1.2660    -9.2650 1             1 RES     
     670 1            6.1540     5.4070    -0.7350 1             1 RES     
     671 1            5.8300     5.0880    -0.9370 1             1 RES     
     672 1            5.4170     5.2900    -0.9930 1             1 RES     
     673 1            3.8780     6.8790    11.4930 1             1 RES     
     674 1            4.3230     6.9730    11.3490 1             1 RES     
     675 1            4.3710     7.2350    10.9070 1             1 RES     
     676 1            0.4150    -9.6100    -5.0530 1             1 RES     
     677 1            0.7110    -9.7440    -5.0690 1             1 RES     
     678 1            0.7150   -10.2710    -4.9330 1             1 RES     
     679 1           -8.3330     3.3140    11.6270 1             1 RES     
     680 1           -8.2220     2.9090    11.4100 1             1 RES     
     681 1           -7.8230     2.9050    11.2490 1             1 RES     
     682 1          -10.8160     0.9680   -10.7550 1             1 RES     
     683 1          -10.9440     0.5960   -10.5660 1             1 RES     
     684 1          -11.3000     0.6600   -10.1890 1             1 RES     
     685 1          -12.1520     6.6600     5.7190 1             1 RES     
     686 1          -11.9310     6.3640     5.3280 1             1 RES     
     687 1          -11.4860     6.1870     5.4250 1             1 RES     
     688 1            0.3780   -10.5870    -9.8650 1             1 RES     
     689 1            0.0890   -10.3840    -9.6590 1             1 RES     
     690 1            0.2000   -10.2380    -9.2860 1             1 RES     
     691 1           -9.6790     9.7240     5.5440 1             1 RES     
     692 1           -9.4870     9.4970     5.1900 1             1 RES     
     693 1           -9.2350     9.7260     4.9450 1             1 RES     
     694 1           -8.4010    10.9840     6.6300 1             1 RES     
     695 1           -8.6860    11.1790     6.4410 1             1 RES     
     696 1           -8.9690    10.8850     6.2040 1             1 RES     
     697 1           -5.9890    -4.1180    -3.3580 1             1 RES     
     698 1           -5.7590    -4.2900    -3.5520 1             1 RES     
     699 1           -5.5650    -4.5480    -3.3740 1             1 RES     
     700 1           11.0070    11.6900     9.9290 1             1 RES     
     701 1           11.0640    11.3740    10.3970 1             1 RES     
     702 1           10.8190    11.1790    10.4740 1             1 RES     
     703 1           -8.9640    -0.3170    -0.4020 1             1 RES     
     704 1           -8.8810    -0.1860    -0.2500 1             1 RES     
     705 1           -9.2120     0.1440    -0.0470 1             1 RES     
     706 1            1.3020    -5.7210     4.2400 1             1 RES     
     707 1            1.3020    -5.8460     3.7110 1             1 RES     
     708 1            1.6680    -5.6560     3.5200 1             1 RES     
     709 1            6.9110     5.9570    -0.2210 1             1 RES     
     710 1            7.0460     6.4300    -0.3510 1             1 RES     
     711 1            7.5260     6.5470    -0.3230 1             1 RES     
     712 1           11.7740    -7.4660    -4.7510 1             1 RES     
     713 1           11.7500    -7.1990    -4.5270 1             1 RES     
     714 1           11.3190    -7.1330    -4.3870 1             1 RES     
     715 1           -0.2410    -7.2470     5.5630 1             1 RES     
     716 1           -0.7470    -7.4020     5.7660 1             1 RES     
     717 1           -1.0920    -6.9010     5.9100 1             1 RES     
     718 1            5.9150    -6.4310    -2.0990 1             1 RES     
     719 1            5.3330    -6.4660    -1.9890 1             1 RES     
     720 1            5.2000    -6.8890    -1.7690 1             1 RES     
     721 1           11.6530    -9.5700    -5.0920 1             1 RES     
     722 1           11.7060   -10.0380    -4.9050 1             1 RES     
     723 1           12.1500   -10.0500    -4.6580 1             1 RES     
     724 1            7.7900    -2.8030    -8.9920 1             1 RES     
     725 1            7.6320    -2.6420    -9.2420 1             1 RES     
     726 1            7.4230    -2.9170    -9.5170 1             1 RES     
     727 1            0.1640    -7.2760   -11.4010 1             1 RES     
     728 1            0.1110    -6.9660   -11.7560 1             1 RES     
     729 1            0.4380    -6.9510   -12.1280 1             1 RES     
     730 1          -11.1500   -12.3860     8.1110 1             1 RES     
     731 1          -11.0420   -12.0620     8.0380 1             1 RES     
     732 1          -11.3140   -11.7650     8.1840 1             1 RES     
     733 1            9.2090     8.7330    -3.2210 1             1 RES     
     734 1            8.8960     9.1390    -3.2780 1             1 RES     
     735 1            8.6290     9.1680    -3.0000 1             1 RES     
     736 1            4.8600    -4.4460    -7.4230 1             1 RES     
     737 1            4.9320    -4.9780    -7.2370 1             1 RES     
     738 1            5.4430    -5.1400    -7.3290 1             1 RES     
     739 1            6.4020    -2.6140    10.9790 1             1 RES     
     740 1            6.7490    -2.2760    10.8910 1             1 RES     
     741 1            6.9050    -2.1420    11.2180 1             1 RES     
     742 1           11.3690     9.8780     1.7370 1             1 RES     
     743 1           11.4280    10.1820     1.5750 1             1 RES     
     744 1           11.8770    10.1440     1.3020 1             1 RES     
     745 1           -1.1080    -2.2630    -0.7200 1             1 RES     
     746 1           -1.5080    -2.0580    -0.4720 1             1 RES     
     747 1           -1.8470    -2.3060    -0.4650 1             1 RES     
     748 1          -10.5240     8.7970     8.5460 1             1 RES     
     749 1          -10.6860     8.5190     8.1700 1             1 RES     
     750 1          -11.1090     8.5090     8.1000 1             1 RES     
     751 1           -9.8750     6.7510    11.2080 1             1 RES     
     752 1           -9.8510     6.9600    11.4140 1             1 RES     
     753 1          -10.2240     6.9820    11.7370 1             1 RES     
     754 1            8.6570    -1.0100    -4.6230 1             1 RES     
     755 1            8.7490    -1.4670    -4.6290 1             1 RES     
     756 1            8.4440    -1.7310    -4.8030 1             1 RES     
     757 1          -10.8140     3.8360    -8.1270 1             1 RES     
     758 1          -11.0890     3.9550    -8.1580 1             1 RES     
     759 1          -11.2350     3.9430    -8.6280 1             1 RES     
     760 1            6.8130    12.1560    -4.5720 1             1 RES     
     761 1            6.6940    11.7950    -4.7650 1             1 RES     
     762 1            6.7430    11.7680    -5.3570 1             1 RES     
     763 1            0.0680     8.0840     4.9390 1             1 RES     
     764 1           -0.5070     8.1760     4.7460 1             1 RES     
     765 1           -0.7620     7.9960     4.9630 1             1 RES     
     766 1           -6.4900    -9.0630     4.7980 1             1 RES     
     767 1           -6.3610    -9.0430     4.4490 1             1 RES     
     768 1           -6.2940    -8.5060     4.2660 1             1 RES     
     769 1            2.7140    -8.2680    -0.2660 1             1 RES     
     770 1            2.4620    -7.8010    -0.0400 1             1 RES     
     771 1            2.5630    -7.6870     0.4590 1             1 RES     
     772 1           -0.0550     3.8450     1.2850 1             1 RES     
     773 1           -0.0810     3.8000     0.9670 1             1 RES     
     774 1           -0.4490     3.9320     0.8380 1             1 RES     
     775 1           -6.9480    -5.7110     9.0400 1             1 RES     
     776 1           -6.9310    -5.5690     8.6680 1             1 RES     
     777 1           -7.0800    -5.2230     8.6340 1             1 RES     
     778 1            6.6610     2.7640    -6.3230 1             1 RES     
     779 1            6.6190     2.9960    -6.7750 1             1 RES     
     780 1            6.6730     2.8300    -7.0250 1             1 RES     
     781 1            1.5010     4.7570    -3.4870 1             1 RES     
     782 1            1.1390     5.1470    -3.2610 1             1 RES     
     783 1            0.8280     5.2790    -3.4920 1             1 RES     
     784 1           11.2660    -2.3290    11.1630 1             1 RES     
     785 1           11.0890    -2.5510    11.4020 1             1 RES     
     786 1           10.8830    -2.3600    11.5950 1             1 RES     
     787 1            0.4210    -2.1970     2.4800 1             1 RES     
     788 1            0.0130    -2.1380     2.3700 1             1 RES     
     789 1           -0.0520    -1.7430     2.1460 1             1 RES     
     790 1            5.2710     3.7120     1.6170 1             1 RES     
     791 1            5.1760     3.5940     1.9370 1             1 RES     
     792 1            5.5820     3.3090     2.2580 1             1 RES     
     793 1            3.0750     9.7780    -6.6500 1             1 RES     
     794 1            3.0130     9.3550    -6.8930 1             1 RES     
     795 1            3.1390     9.3910    -7.3740 1             1 RES     
     796 1           -6.7310    11.6690     8.6700 1             1 RES     
     797 1           -6.8690    11.2560     8.7830 1             1 RES     
     798 1           -7.0850    11.2430     9.1300 1             1 RES     
     799 1           -1.9330     1.7330     9.3530 1             1 RES     
     800 1           -1.6880     1.2990     9.3680 1             1 RES     
     801 1           -1.4550     1.2360     9.7430 1             1 RES     
     802 1           12.4500     4.7350    -3.7150 1             1 RES     
     803 1           12.9970     4.7830    -3.8720 1             1 RES     
     804 1           13.1620     5.0970    -3.7310 1             1 RES     
     805 1            9.3940    -8.8090    -1.6700 1             1 RES     
     806 1            9.5570    -8.4750    -1.8620 1             1 RES     
     807 1            9.7210    -8.5870    -2.3340 1             1 RES     
     808 1           10.5070    -7.0160   -10.0480 1             1 RES     
     809 1           10.0000    -7.0190   -10.1200 1             1 RES     
     810 1            9.7130    -6.5540   -10.1110 1             1 RES     
     811 1           -7.2250     4.8790   -11.0960 1             1 RES     
     812 1           -7.4450     5.1140   -11.1810 1             1 RES     
     813 1           -7.4630     5.3350   -10.8620 1             1 RES     
     814 1            8.3420     2.8050     7.2870 1             1 RES     
     815 1            8.2640     3.1750     7.4570 1             1 RES     
     816 1            7.9740     3.4730     7.1760 1             1 RES     
     817 1            9.7460     5.6620    10.9990 1             1 RES     
     818 1            9.4710     5.9340    10.8430 1             1 RES     
     819 1            9.3050     5.7880    10.5320 1             1 RES     
     820 1           -3.0440     8.0930    10.6310 1             1 RES     
     821 1           -3.1050     7.6510    10.7100 1             1 RES     
     822 1           -2.8600     7.5050    11.0780 1             1 RES     
     823 1            9.8860     7.6870     4.6700 1             1 RES     
     824 1           10.0780     7.6060     5.0370 1             1 RES     
     825 1            9.7780     7.5040     5.3950 1             1 RES     
     826 1           -7.1670   -12.2880     7.8540 1             1 RES     
     827 1           -7.1540   -12.0810     8.0210 1             1 RES     
     828 1           -7.0250   -11.7260     7.8840 1             1 RES     
     829 1            8.6600   -10.9460     0.6470 1             1 RES     
     830 1            8.8810   -11.1310     0.2240 1             1 RES     
     831 1            9.3870   -11.0290     0.2240 1             1 RES     
     832 1           -0.0240    -7.6820    11.1120 1             1 RES     
     833 1            0.2350    -7.4530    10.8130 1             1 RES     
     834 1            0.0900    -7.2060    10.6470 1             1 RES     
     835 1            0.5100    -2.6910   -12.4300 1             1 RES     
     836 1            0.6700    -2.8030   -12.8530 1             1 RES     
     837 1            0.9790    -3.2180   -12.8280 1             1 RES     
     838 1            4.8030    -3.5880    -3.4370 1             1 RES     
     839 1            4.6230    -3.2430    -3.7960 1             1 RES     
     840 1            4.3290    -3.3790    -3.9930 1             1 RES     
     841 1           12.5080     1.3270     5.0270 1             1 RES     
     842 1           12.3540     1.5580     5.3270 1             1 RES     
     843 1           11.9250     1.3680     5.5840 1             1 RES     
     844 1            6.4610     5.1210    -2.6000 1             1 RES     
     845 1            6.9710     5.1100    -2.7450 1             1 RES     
     846 1            7.0690     5.3570    -3.0780 1             1 RES     
     847 1           12.4390     5.8530   -11.2650 1             1 RES     
     848 1           12.1240     6.0750   -11.0040 1             1 RES     
     849 1           11.9210     5.8200   -10.4560 1             1 RES     
     850 1           -0.1230    -6.2820     3.2890 1             1 RES     
     851 1           -0.3130    -6.4130     3.7060 1             1 RES     
     852 1           -0.0890    -6.2910     4.0990 1             1 RES     
     853 1           -1.1580    -1.4120     4.5540 1             1 RES     
     854 1           -1.4060    -1.1340     4.1560 1             1 RES     
     855 1           -1.8370    -1.2690     4.0770 1             1 RES     
     856 1           12.3650    10.9000    -2.6050 1             1 RES     
     857 1           12.4470    11.2400    -2.8640 1             1 RES     
     858 1           12.6040    11.5720    -2.6690 1             1 RES     
     859 1           -1.5490     2.7380    10.3180 1             1 RES     
     860 1           -1.6290     2.9740    10.0030 1             1 RES     
     861 1           -1.2370     3.1780     9.7970 1             1 RES     
     862 1           -4.6980     4.4570     5.8750 1             1 RES     
     863 1           -4.3460     4.0820     5.7500 1             1 RES     
     864 1           -4.3410     3.7240     6.0450 1             1 RES     
     865 1           -8.5470     8.8480     1.1380 1             1 RES     
     866 1           -8.6310     9.2760     0.7690 1             1 RES     
     867 1           -8.1770     9.7290     0.6960 1             1 RES     
     868 1          -11.9980    11.1670     7.0920 1             1 RES     
     869 1          -12.2780    11.2110     7.4620 1             1 RES     
     870 1          -12.2100    11.4940     7.6600 1             1 RES     
     871 1           -1.7680   -12.2190     2.9170 1             1 RES     
     872 1           -1.8660   -12.0650     3.3350 1             1 RES     
     873 1           -2.2440   -11.8870     3.4100 1             1 RES     
     874 1           10.8610     8.3340   -12.4000 1             1 RES     
     875 1           11.1820     7.9970   -12.3280 1             1 RES     
     876 1           11.6190     8.0690   -12.4980 1             1 RES     
     877 1           -1.2490    -4.2960     5.6170 1             1 RES     
     878 1           -0.8590    -4.3440     5.8840 1             1 RES     
     879 1           -0.8540    -4.6410     6.2190 1             1 RES     
     880 1            8.2110   -11.1680    -7.8480 1             1 RES     
     881 1            7.8690   -11.0740    -7.5470 1             1 RES     
     882 1            7.8890   -10.6640    -7.3530 1             1 RES     
     883 1            1.5460    -1.7530     7.4500 1             1 RES     
     884 1            1.1420    -1.7280     7.4860 1             1 RES     
     885 1            0.9950    -1.6850     7.9340 1             1 RES     
     886 1            3.7330     9.2930    -0.6910 1             1 RES     
     887 1            4.1100     9.1840    -0.7370 1             1 RES     
     888 1            4.3540     9.3230    -1.2500 1             1 RES     
     889 1          -11.9630     4.7080    -8.0880 1             1 RES     
     890 1          -12.1960     5.0020    -8.3620 1             1 RES     
     891 1          -12.5440     5.3990    -7.9870 1             1 RES     
     892 1            6.6000     0.5280     8.1270 1             1 RES     
     893 1            6.7260     1.0560     8.3980 1             1 RES     
     894 1            6.7950     1.4130     8.0720 1             1 RES     
     895 1           -5.9420    -4.6740    -8.2170 1             1 RES     
     896 1           -5.8420    -5.0230    -8.4860 1             1 RES     
     897 1           -6.1060    -5.4290    -8.4030 1             1 RES     
     898 1            7.9150    -0.1470   -12.1290 1             1 RES     
     899 1            7.4990    -0.1420   -12.2600 1             1 RES     
     900 1            7.4590     0.0170   -12.7340 1             1 RES     
     901 1            8.1460    11.2740    -0.5890 1             1 RES     
     902 1            8.5510    11.3960    -0.9350 1             1 RES     
     903 1            8.8470    11.3440    -0.8110 1             1 RES     
     904 1           10.1180     4.6940     5.2290 1             1 RES     
     905 1            9.9610     4.9590     4.7990 1             1 RES     
     906 1            9.3820     4.8690     4.6900 1             1 RES     
     907 1            5.5220     6.4530     3.2230 1             1 RES     
     908 1            5.3300     6.4630     3.5710 1             1 RES     
     909 1            5.1860     6.9980     3.7870 1             1 RES     
     910 1            2.6850     6.8860    11.4160 1             1 RES     
     911 1            2.8600     6.6060    11.1900 1             1 RES     
     912 1            2.6230     6.2320    11.1250 1             1 RES     
     913 1           -1.8960    -5.2280    10.4660 1             1 RES     
     914 1           -1.6380    -5.3860    10.8600 1             1 RES     
     915 1           -1.6710    -5.1070    11.2670 1             1 RES     
     916 1          -11.9430    -9.1110    -1.6330 1             1 RES     
     917 1          -12.1030    -9.1940    -1.2410 1             1 RES     
     918 1          -12.3560    -9.4070    -1.2860 1             1 RES     
     919 1           11.4810    12.0030   -10.4620 1             1 RES     
     920 1           11.8060    11.6680   -10.1840 1             1 RES     
     921 1           11.8800    11.2660   -10.4410 1             1 RES     
     922 1            3.4050     7.4420     4.0660 1             1 RES     
     923 1            3.0490     7.5510     3.7130 1             1 RES     
     924 1            2.7780     8.0140     3.8560 1             1 RES     
     925 1           11.5100    -6.5490   -12.1000 1             1 RES     
     926 1           11.2810    -6.4450   -12.3610 1             1 RES     
     927 1           11.4130    -6.1030   -12.5790 1             1 RES     
     928 1            6.8930    -1.6150   -11.6990 1             1 RES     
     929 1            6.5230    -1.6630   -11.9580 1             1 RES     
     930 1            6.3380    -1.2750   -12.0510 1             1 RES     
     931 1           -9.4610     7.0690     9.2930 1             1 RES     
     932 1           -9.8910     7.2660     9.3270 1             1 RES     
     933 1          -10.0460     7.2960     9.7860 1             1 RES     
     934 1            3.6960    -1.0660     7.7590 1             1 RES     
     935 1            3.2190    -0.9910     7.9440 1             1 RES     
     936 1            3.1810    -0.4890     8.3120 1             1 RES     
     937 1           -3.7470    -5.6610     2.0120 1             1 RES     
     938 1           -4.2020    -5.7680     1.9450 1             1 RES     
     939 1           -4.4620    -5.9620     2.3640 1             1 RES     
     940 1           -0.7360    -2.7810     9.3930 1             1 RES     
     941 1           -0.6500    -2.2050     9.3830 1             1 RES     
     942 1           -0.7220    -1.9900     9.7520 1             1 RES     
     943 1            2.7980     7.7170    -5.3950 1             1 RES     
     944 1            2.7720     7.2420    -5.5510 1             1 RES     
     945 1            2.9040     7.1770    -6.0080 1             1 RES     
     946 1            7.3800    11.1610    10.6130 1             1 RES     
     947 1            7.4420    11.6360    10.8490 1             1 RES     
     948 1            7.0380    11.9580    10.8700 1             1 RES     
     949 1           -8.7420    -0.4380     3.2540 1             1 RES     
     950 1           -8.6050    -0.8990     2.9900 1             1 RES     
     951 1           -8.9320    -1.0480     2.4720 1             1 RES     
     952 1            0.9420    -3.3180    -1.5120 1             1 RES     
     953 1            0.9840    -2.9500    -1.7530 1             1 RES     
     954 1            0.8070    -2.6030    -1.5830 1             1 RES     
     955 1           -8.2960    -0.3140     5.0690 1             1 RES     
     956 1           -8.0300     0.0840     5.2620 1             1 RES     
     957 1           -8.1290     0.2370     5.7030 1             1 RES     
     958 1          -12.2300    10.2850     1.1520 1             1 RES     
     959 1          -11.9220     9.8760     1.1180 1             1 RES     
     960 1          -11.9770     9.5260     1.4930 1             1 RES     
     961 1            3.9270    -6.6230     5.7350 1             1 RES     
     962 1            4.3070    -6.5240     5.9790 1             1 RES     
     963 1            4.5870    -6.8250     5.9270 1             1 RES     
     964 1           -6.4310     7.7000    -3.7380 1             1 RES     
     965 1           -6.5750     7.7330    -4.2100 1             1 RES     
     966 1           -7.1570     7.5350    -4.2840 1             1 RES     
     967 1            6.6660    -4.1350     9.8630 1             1 RES     
     968 1            6.8370    -4.4630     9.6630 1             1 RES     
     969 1            6.6010    -4.5170     9.2050 1             1 RES     
     970 1           12.0650    -7.6330     0.0320 1             1 RES     
     971 1           11.7500    -7.5210     0.4490 1             1 RES     
     972 1           11.4920    -7.2720     0.3570 1             1 RES     
     973 1           -4.7900     5.4980    -3.5990 1             1 RES     
     974 1           -4.5010     5.1950    -3.3780 1             1 RES     
     975 1           -4.7050     4.9300    -3.1490 1             1 RES     
     976 1            9.0470     1.6280   -10.5720 1             1 RES     
     977 1            8.6830     1.9750   -10.6410 1             1 RES     
     978 1            8.5250     2.0020   -11.1320 1             1 RES     
     979 1          -10.1050   -11.4190    -7.6500 1             1 RES     
     980 1           -9.7020   -11.5530    -7.4420 1             1 RES     
     981 1           -9.5030   -11.7420    -7.6430 1             1 RES     
     982 1            6.9830     4.9810    -1.7180 1             1 RES     
     983 1            7.2410     5.0770    -1.3980 1             1 RES     
     984 1            7.4750     5.4980    -1.4320 1             1 RES     
     985 1            5.7460    -4.4050    10.9170 1             1 RES     
     986 1            5.7700    -4.2080    11.2000 1             1 RES     
     987 1            5.2750    -4.2190    11.5090 1             1 RES     
     988 1           -8.2680    -5.1080     8.7760 1             1 RES     
     989 1           -7.9840    -4.8870     8.8250 1             1 RES     
     990 1           -8.0690    -4.5570     9.0440 1             1 RES     
     991 1            1.0230   -10.2280    10.6730 1             1 RES     
     992 1            1.1110    -9.7890    10.7370 1             1 RES     
     993 1            1.5380    -9.7100    10.8600 1             1 RES     
     994 1            6.5330     1.8730     2.2020 1             1 RES     
     995 1            6.2810     2.1900     1.9440 1             1 RES     
     996 1            6.4010     2.5440     2.0290 1             1 RES     
     997 1           -6.3510    10.7300     4.6450 1             1 RES     
     998 1           -6.8960    10.5980     4.6790 1             1 RES     
     999 1           -7.0800    10.8320     4.4410 1             1 RES     
    1000 1           -3.1280     3.6450    -5.3520 1             1 RES     
    1001 1           -3.2570     3.3880    -5.7890 1             1 RES     
    1002 1           -3.5140     3.7040    -6.0200 1             1 RES     
    1003 1           -7.6790    11.5590    10.1640 1             1 RES     
    1004 1           -7.7690    11.8200    10.3820 1             1 RES     
    1005 1           -7.4910    12.1200    10.4160 1             1 RES     
    1006 1           -7.3060     9.9120     2.9010 1             1 RES     
    1007 1           -7.0600     9.8500     3.3560 1             1 RES     
    1008 1           -6.8860    10.1710     3.4110 1             1 RES     
    1009 1           12.4200     2.9640     4.3160 1             1 RES     
    1010 1           12.7120     3.2160     4.5260 1             1 RES     
    1011 1           12.6380     3.2550     4.8740 1             1 RES     
    1012 1           -3.3700     1.9320    -3.2860 1             1 RES     
    1013 1           -3.4430     2.4020    -3.2910 1             1 RES     
    1014 1           -3.4030     2.6390    -2.8200 1             1 RES     
    1015 1           -2.1940   -11.7700    -9.9250 1             1 RES     
    1016 1           -2.5410   -11.4930    -9.9270 1             1 RES     
    1017 1           -2.8890   -11.7340   -10.1210 1             1 RES     
    1018 1            0.9740    -7.4110     4.9050 1             1 RES     
    1019 1            0.7080    -7.1490     4.9900 1             1 RES     
    1020 1            0.8180    -6.8340     5.1420 1             1 RES     
    1021 1            8.5870     6.5290    -1.5740 1             1 RES     
    1022 1            8.4850     6.6080    -1.9740 1             1 RES     
    1023 1            8.0660     6.6210    -2.0240 1             1 RES     
    1024 1            7.1940    -4.5250    -4.3630 1             1 RES     
    1025 1            7.4230    -4.2600    -4.0680 1             1 RES     
    1026 1            7.2940    -3.8270    -4.1390 1             1 RES     
    1027 1           -5.9670     4.3240    12.4010 1             1 RES     
    1028 1           -6.0910     3.9900    12.8390 1             1 RES     
    1029 1           -6.4590     4.1030    13.0380 1             1 RES     
    1030 1          -11.5730     3.9630   -11.7180 1             1 RES     
    1031 1          -11.9670     3.9620   -12.1170 1             1 RES     
    1032 1          -11.9560     4.3610   -12.4510 1             1 RES     
    1033 1           -3.8640   -12.3430     8.3840 1             1 RES     
    1034 1           -3.9980   -12.8280     8.4870 1             1 RES     
    1035 1           -4.1150   -12.9230     9.0040 1             1 RES     
    1036 1           12.1160   -11.2910    -0.1410 1             1 RES     
    1037 1           11.8970   -11.7990     0.0320 1             1 RES     
    1038 1           11.4750   -11.9590    -0.1650 1             1 RES     
    1039 1           -7.0620    -6.8270     1.6120 1             1 RES     
    1040 1           -7.1610    -6.3390     1.9490 1             1 RES     
    1041 1           -6.9560    -6.3940     2.3620 1             1 RES     
    1042 1           -2.0340     4.3050     6.1390 1             1 RES     
    1043 1           -1.7440     4.4100     5.7360 1             1 RES     
    1044 1           -1.9840     4.7640     5.4160 1             1 RES     
    1045 1            1.9960     5.6540    -2.8520 1             1 RES     
    1046 1            2.1180     5.1990    -2.7730 1             1 RES     
    1047 1            2.4800     5.1390    -2.8260 1             1 RES     
    1048 1           -3.7360     8.5530     2.4280 1             1 RES     
    1049 1           -3.9900     8.5840     2.4620 1             1 RES     
    1050 1           -4.1000     8.8680     2.8030 1             1 RES     
    1051 1           -8.5990    -1.5660     7.6540 1             1 RES     
    1052 1           -8.6510    -1.1830     7.8820 1             1 RES     
    1053 1           -8.7470    -1.2260     8.2650 1             1 RES     
    1054 1           -6.5380     3.4360    10.5790 1             1 RES     
    1055 1           -6.4040     3.9190    10.8800 1             1 RES     
    1056 1           -6.2120     3.8440    11.2430 1             1 RES     
    1057 1           -7.8970    -8.5480     8.0270 1             1 RES     
    1058 1           -8.3670    -8.4130     7.8210 1             1 RES     
    1059 1           -8.4460    -8.5650     7.3890 1             1 RES     
    1060 1           -7.2990     7.8960     0.2510 1             1 RES     
    1061 1           -6.8850     7.7110     0.2400 1             1 RES     
    1062 1           -6.5690     7.8890     0.6920 1             1 RES     
    1063 1           -0.3630    11.8910     6.4550 1             1 RES     
    1064 1           -0.1450    12.2960     6.5890 1             1 RES     
    1065 1           -0.2560    12.3810     6.9780 1             1 RES     
    1066 1           -8.5840    10.7630    -8.0920 1             1 RES     
    1067 1           -8.6810    11.0870    -7.7930 1             1 RES     
    1068 1           -8.7330    11.4650    -7.9780 1             1 RES     
    1069 1            1.0360    -0.3500     7.8490 1             1 RES     
    1070 1            1.0490     0.0390     7.9810 1             1 RES     
    1071 1            1.4870     0.1300     8.2670 1             1 RES     
    1072 1           -1.4210     0.1270    -6.1340 1             1 RES     
    1073 1           -1.0970     0.3550    -5.9530 1             1 RES     
    1074 1           -1.1210     0.3900    -5.5130 1             1 RES     
    1075 1            6.2000    -1.1530    -2.9760 1             1 RES     
    1076 1            5.9530    -0.8560    -2.6240 1             1 RES     
    1077 1            6.1830    -0.4360    -2.5880 1             1 RES     
    1078 1           -9.9940    -9.3870    -4.5650 1             1 RES     
    1079 1          -10.1160    -9.1070    -4.6140 1             1 RES     
    1080 1           -9.8320    -8.8660    -4.8450 1             1 RES     
    1081 1            1.1190    -0.8100    -0.4520 1             1 RES     
    1082 1            0.7700    -1.0140    -0.5540 1             1 RES     
    1083 1            0.5460    -1.3590    -0.1290 1             1 RES     
    1084 1           11.0830    -1.9040    -5.2440 1             1 RES     
    1085 1           11.0570    -1.7660    -5.6750 1             1 RES     
    1086 1           10.6640    -1.7710    -5.7790 1             1 RES     
    1087 1            8.4880     8.1970    -1.3230 1             1 RES     
    1088 1            8.8790     8.1190    -1.7110 1             1 RES     
    1089 1            8.9580     7.6780    -1.8080 1             1 RES     
    1090 1           -5.3200     9.3830    12.0540 1             1 RES     
    1091 1           -5.1840     9.1590    12.4860 1             1 RES     
    1092 1           -5.1890     9.4360    12.8100 1             1 RES     
    1093 1            0.3640    -1.1360     5.4150 1             1 RES     
    1094 1            0.1460    -0.9650     5.6470 1             1 RES     
    1095 1           -0.3070    -0.9960     5.6160 1             1 RES     
    1096 1            7.7610    -4.9230    -9.7790 1             1 RES     
    1097 1            7.4710    -4.8900   -10.3350 1             1 RES     
    1098 1            7.1030    -4.8090   -10.3000 1             1 RES     
    1099 1            5.5890     8.6630    12.2160 1             1 RES     
    1100 1            5.2480     8.9460    12.1730 1             1 RES     
    1101 1            5.2000     9.2430    12.4390 1             1 RES     
    1102 1            4.2730    -3.3220     2.9110 1             1 RES     
    1103 1            4.1640    -2.8600     2.7760 1             1 RES     
    1104 1            4.4830    -2.6490     2.6510 1             1 RES     
    1105 1           12.1830   -11.9800    -1.7860 1             1 RES     
    1106 1           11.7310   -11.9520    -1.5670 1             1 RES     
    1107 1           11.4930   -12.2370    -1.6990 1             1 RES     
    1108 1            5.7340    -1.3380     4.1230 1             1 RES     
    1109 1            5.7370    -0.9750     4.1490 1             1 RES     
    1110 1            5.7460    -0.7970     4.6230 1             1 RES     
    1111 1           -4.6230    12.2090    10.0810 1             1 RES     
    1112 1           -4.3440    12.3460    10.2510 1             1 RES     
    1113 1           -4.4260    12.5930    10.4770 1             1 RES     
    1114 1           11.8550     9.5290    -5.8150 1             1 RES     
    1115 1           12.0760     9.4550    -5.4190 1             1 RES     
    1116 1           12.2470     9.0710    -5.3630 1             1 RES     
    1117 1           -0.4580    -8.6540   -11.9260 1             1 RES     
    1118 1           -0.1570    -8.8820   -11.8790 1             1 RES     
    1119 1           -0.0570    -8.9410   -11.4880 1             1 RES     
    1120 1           11.5590     6.4170     5.9990 1             1 RES     
    1121 1           11.2410     6.9130     6.0160 1             1 RES     
    1122 1           11.3590     7.3170     5.5080 1             1 RES     
    1123 1          -11.4110     6.3650    12.3160 1             1 RES     
    1124 1          -11.0060     6.4640    12.6610 1             1 RES     
    1125 1          -10.7010     6.1360    12.6750 1             1 RES     
    1126 1            0.5900    -3.5750    -6.9200 1             1 RES     
    1127 1            0.7650    -3.7560    -7.3200 1             1 RES     
    1128 1            0.4810    -3.7860    -7.6860 1             1 RES     
    1129 1           -8.6360    -2.9490     1.9390 1             1 RES     
    1130 1           -8.2010    -2.8990     1.7440 1             1 RES     
    1131 1           -8.0470    -2.6580     1.8820 1             1 RES     
    1132 1            2.1380    -9.1000    -7.3170 1             1 RES     
    1133 1            1.8980    -9.3560    -6.9700 1             1 RES     
    1134 1            2.2890    -9.3380    -6.4550 1             1 RES     
    1135 1            4.8020     2.4120    -7.4620 1             1 RES     
    1136 1            5.0210     2.5090    -7.0990 1             1 RES     
    1137 1            5.0850     2.1910    -6.7830 1             1 RES     
    1138 1           10.8270     8.8150     5.9520 1             1 RES     
    1139 1           11.1030     8.6190     6.0860 1             1 RES     
    1140 1           11.3390     8.7710     6.3920 1             1 RES     
    1141 1            6.2450    -5.6490    -4.3230 1             1 RES     
    1142 1            6.1920    -6.0940    -4.0220 1             1 RES     
    1143 1            6.0430    -6.4620    -4.2670 1             1 RES     
    1144 1            0.1760     1.2510     2.0880 1             1 RES     
    1145 1            0.3580     1.0520     2.4090 1             1 RES     
    1146 1            0.1440     0.7060     2.5540 1             1 RES     
    1147 1           11.0580     7.6260     9.1350 1             1 RES     
    1148 1           11.2610     7.1130     9.1040 1             1 RES     
    1149 1           11.3950     7.0110     8.6800 1             1 RES     
    1150 1           12.1350    -6.4750     9.2390 1             1 RES     
    1151 1           12.3120    -6.2260     8.7090 1             1 RES     
    1152 1           12.3510    -5.7200     8.6720 1             1 RES     
    1153 1          -11.3190   -12.1610    -0.9550 1             1 RES     
    1154 1          -11.8630   -12.3400    -0.8850 1             1 RES     
    1155 1          -12.1310   -12.2530    -1.1480 1             1 RES     
    1156 1          -10.0640     1.1080    -3.8490 1             1 RES     
    1157 1          -10.3850     0.7780    -3.8010 1             1 RES     
    1158 1          -10.7520     0.6200    -4.2430 1             1 RES     
    1159 1            5.9370    -8.2520   -10.6860 1             1 RES     
    1160 1            6.1950    -8.0280   -10.3660 1             1 RES     
    1161 1            6.6520    -8.1930   -10.3380 1             1 RES     
    1162 1          -12.3240     4.2780    -6.7110 1             1 RES     
    1163 1          -12.1620     4.5920    -6.4130 1             1 RES     
    1164 1          -12.2090     4.4590    -6.0000 1             1 RES     
    1165 1           -9.0760   -11.9130     9.6550 1             1 RES     
    1166 1           -8.8850   -11.6250     9.3110 1             1 RES     
    1167 1           -9.0830   -11.5600     9.0030 1             1 RES     
    1168 1          -10.7300    11.4630     0.0690 1             1 RES     
    1169 1          -10.9240    11.8200     0.0480 1             1 RES     
    1170 1          -11.1460    11.8830    -0.3470 1             1 RES     
    1171 1            4.3830     5.5030     4.1890 1             1 RES     
    1172 1            4.1270     5.4110     3.7420 1             1 RES     
    1173 1            3.7020     5.6850     3.6890 1             1 RES     
    1174 1          -11.1600    -9.9040     6.1690 1             1 RES     
    1175 1          -11.5290    -9.7130     6.3630 1             1 RES     
    1176 1          -11.7450   -10.0200     6.6000 1             1 RES     
    1177 1          -11.3200    10.4560    -1.0090 1             1 RES     
    1178 1          -11.2870    10.5430    -0.6560 1             1 RES     
    1179 1          -11.6630    10.6220    -0.4740 1             1 RES     
    1180 1          -10.0410    -0.3420     4.4020 1             1 RES     
    1181 1           -9.6830    -0.7050     4.6620 1             1 RES     
    1182 1           -9.3050    -0.8960     4.3980 1             1 RES     
    1183 1           -3.1830     8.7960    -7.3970 1             1 RES     
    1184 1           -3.3090     8.8140    -7.0230 1             1 RES     
    1185 1           -2.8830     8.7130    -6.6900 1             1 RES     
    1186 1            3.9340     5.7010     2.1440 1             1 RES     
    1187 1            4.0930     5.7520     2.4560 1             1 RES     
    1188 1            4.1170     5.3440     2.6860 1             1 RES     
    1189 1           -9.4020    -9.2080    -2.6010 1             1 RES     
    1190 1           -9.6060    -9.4810    -2.8000 1             1 RES     
    1191 1          -10.0850    -9.3600    -2.6810 1             1 RES     
    1192 1            8.7770     9.0230     4.3520 1             1 RES     
    1193 1            8.8920     8.7940     4.0090 1             1 RES     
    1194 1            8.6150     8.8020     3.6890 1             1 RES     
    1195 1           -1.7770   -10.9210    12.5480 1             1 RES     
    1196 1           -1.9390   -11.4520    12.6730 1             1 RES     
    1197 1           -2.3560   -11.4850    12.9610 1             1 RES     
    1198 1           11.1260     6.4630     3.8010 1             1 RES     
    1199 1           10.8410     6.5770     4.1020 1             1 RES     
    1200 1           10.7920     7.1500     4.1700 1             1 RES     
    1201 1           10.9650    -3.6980    -2.6370 1             1 RES     
    1202 1           10.7270    -3.5490    -2.8770 1             1 RES     
    1203 1           10.5490    -3.8300    -3.0850 1             1 RES     
    1204 1           -7.5470     5.4170    -8.7410 1             1 RES     
    1205 1           -7.5760     5.8480    -8.7680 1             1 RES     
    1206 1           -7.1510     6.0630    -8.6290 1             1 RES     
    1207 1           -5.9140     1.6960     4.3730 1             1 RES     
    1208 1           -5.7540     1.9720     4.4210 1             1 RES     
    1209 1           -5.3140     1.9910     4.4480 1             1 RES     
    1210 1            5.6970    10.7760    10.0420 1             1 RES     
    1211 1            5.7460    11.0000     9.7740 1             1 RES     
    1212 1            6.0790    11.1990     9.8450 1             1 RES     
    1213 1            0.8640    -7.1140    -1.7550 1             1 RES     
    1214 1            1.0680    -7.4690    -1.9330 1             1 RES     
    1215 1            1.0490    -7.9860    -1.6250 1             1 RES     
    1216 1          -12.3520     5.0340    -9.5890 1             1 RES     
    1217 1          -11.8010     4.9080    -9.7070 1             1 RES     
    1218 1          -11.6950     4.6270    -9.5670 1             1 RES     
    1219 1            6.9710     1.1710     6.3160 1             1 RES     
    1220 1            7.0310     0.8460     6.3400 1             1 RES     
    1221 1            6.6330     0.6270     6.5990 1             1 RES     
    1222 1           -3.9090   -12.1970    -9.1760 1             1 RES     
    1223 1           -3.4850   -12.3290    -9.0980 1             1 RES     
    1224 1           -3.4510   -12.7680    -8.8730 1             1 RES     
    1225 1           -4.2310    -0.2230    -8.3120 1             1 RES     
    1226 1           -4.3460    -0.5880    -8.5860 1             1 RES     
    1227 1           -4.5420    -1.1170    -8.3090 1             1 RES     
    1228 1           -9.8930     1.8380    -0.3780 1             1 RES     
    1229 1           -9.9100     1.4060    -0.2150 1             1 RES     
    1230 1           -9.6570     1.1560    -0.3550 1             1 RES     
    1231 1           -2.5730    -0.7430    -3.1070 1             1 RES     
    1232 1           -2.8280    -0.9260    -3.2510 1             1 RES     
    1233 1           -2.7090    -1.4690    -3.3930 1             1 RES     
    1234 1           -8.0210    -8.7700     2.7610 1             1 RES     
    1235 1           -8.0780    -8.8550     2.3630 1             1 RES     
    1236 1           -7.7140    -8.9330     2.1410 1             1 RES     
    1237 1            0.0020     8.4110    -7.4250 1             1 RES     
    1238 1           -0.1440     8.5230    -7.0640 1             1 RES     
    1239 1           -0.1630     8.8040    -6.9900 1             1 RES     
    1240 1           -5.5430     7.0590    -9.9350 1             1 RES     
    1241 1           -5.0980     6.8760    -9.7510 1             1 RES     
    1242 1           -4.7370     7.1430    -9.7630 1             1 RES     
    1243 1            4.1870    -5.1330     2.5320 1             1 RES     
    1244 1            4.1710    -4.6700     2.6010 1             1 RES     
    1245 1            3.9050    -4.5400     3.0660 1             1 RES     
    1246 1            3.6340    -7.2930   -11.2110 1             1 RES     
    1247 1            3.9440    -6.9480   -11.4470 1             1 RES     
    1248 1            4.1610    -6.7000   -11.1140 1             1 RES     
    1249 1            6.0000    -8.9280    -9.0630 1             1 RES     
    1250 1            6.1910    -8.5140    -9.0920 1             1 RES     
    1251 1            6.7630    -8.5300    -8.9550 1             1 RES     
    1252 1           11.1110    12.0740    -1.0130 1             1 RES     
    1253 1           10.8500    12.4060    -0.9560 1             1 RES     
    1254 1           10.5560    12.3240    -0.6760 1             1 RES     
    1255 1           -9.3190   -12.2560     7.6040 1             1 RES     
    1256 1           -9.4840   -11.8650     7.4060 1             1 RES     
    1257 1           -9.1220   -11.4770     7.4040 1             1 RES     
    1258 1            4.5430    12.0040    -9.3380 1             1 RES     
    1259 1            4.7800    11.6430    -9.4650 1             1 RES     
    1260 1            5.3420    11.7410    -9.6430 1             1 RES     
    1261 1           12.4790    12.0520     4.0350 1             1 RES     
    1262 1           12.5990    11.9820     4.6290 1             1 RES     
    1263 1           12.6790    11.5930     4.7550 1             1 RES     
    1264 1            3.8840     9.6540     9.9140 1             1 RES     
    1265 1            4.2660     9.5000     9.8820 1             1 RES     
    1266 1            4.5490     9.5570    10.2300 1             1 RES     
    1267 1            0.9850     9.4740     5.2710 1             1 RES     
    1268 1            1.4680     9.1980     5.2820 1             1 RES     
    1269 1            1.3960     8.7050     5.2480 1             1 RES     
    1270 1            6.1040     1.7890    -6.1540 1             1 RES     
    1271 1            6.1450     1.9110    -6.8130 1             1 RES     
    1272 1            6.3850     1.6890    -7.0090 1             1 RES     
    1273 1           -5.0640    11.3560   -12.3870 1             1 RES     
    1274 1           -4.5970    11.3230   -12.1180 1             1 RES     
    1275 1           -4.4830    11.6030   -12.0230 1             1 RES     
    1276 1           -1.5990     3.1840     2.4490 1             1 RES     
    1277 1           -1.7060     2.7060     2.2860 1             1 RES     
    1278 1           -2.1190     2.5500     2.5130 1             1 RES     
    1279 1           -1.8200     0.1550     9.3200 1             1 RES     
    1280 1           -2.0630    -0.0380     9.1020 1             1 RES     
    1281 1           -1.8640    -0.3540     8.8770 1             1 RES     
    1282 1            7.7790     8.9670     1.4470 1             1 RES     
    1283 1            7.2840     8.8960     1.4710 1             1 RES     
    1284 1            7.0690     8.5060     1.6650 1             1 RES     
    1285 1           11.6720    -9.8490    -0.2530 1             1 RES     
    1286 1           11.6670    -9.8680    -0.6370 1             1 RES     
    1287 1           11.5780    -9.5000    -0.8360 1             1 RES     
    1288 1          -10.6760   -10.8670    -6.3620 1             1 RES     
    1289 1          -10.8330   -10.6770    -6.6970 1             1 RES     
    1290 1          -10.5700   -10.5790    -6.9240 1             1 RES     
    1291 1           11.9150   -10.4910    -2.4980 1             1 RES     
    1292 1           12.2840   -10.4270    -2.5800 1             1 RES     
    1293 1           12.5800   -10.6060    -2.3390 1             1 RES     
    1294 1            7.8710     3.0380    10.6450 1             1 RES     
    1295 1            7.6840     2.9170    10.1470 1             1 RES     
    1296 1            7.3010     3.1670    10.0190 1             1 RES     
    1297 1            9.5110     4.8660     0.6330 1             1 RES     
    1298 1            9.4290     4.4350     0.6310 1             1 RES     
    1299 1            9.7410     4.1740     0.2690 1             1 RES     
    1300 1            3.1690    -7.9030   -10.3400 1             1 RES     
    1301 1            2.8170    -8.0700   -10.3260 1             1 RES     
    1302 1            2.7600    -8.5020   -10.1290 1             1 RES     
    1303 1           12.2380     8.1800     5.0380 1             1 RES     
    1304 1           12.6350     8.0830     5.2500 1             1 RES     
    1305 1           12.7070     7.7560     5.5550 1             1 RES     
    1306 1            7.6510     8.3720    -2.1500 1             1 RES     
    1307 1            7.7800     8.5000    -2.5550 1             1 RES     
    1308 1            7.3990     8.6340    -2.8400 1             1 RES     
    1309 1           -0.3610     3.8620    -1.4700 1             1 RES     
    1310 1           -0.7730     3.9270    -1.3250 1             1 RES     
    1311 1           -0.8050     4.2020    -0.8220 1             1 RES     
    1312 1          -11.3270     9.9380    -3.7710 1             1 RES     
    1313 1          -11.6680     9.7660    -3.7410 1             1 RES     
    1314 1          -11.8900     9.7400    -3.1760 1             1 RES     
    1315 1           -1.0340    -7.9060     7.7110 1             1 RES     
    1316 1           -1.0880    -7.5090     7.3800 1             1 RES     
    1317 1           -0.9280    -7.5680     6.9880 1             1 RES     
    1318 1            6.2000     2.0870    10.7140 1             1 RES     
    1319 1            5.7650     1.7240    10.7160 1             1 RES     
    1320 1            5.6750     1.6240    11.0150 1             1 RES     
    1321 1          -12.4300    -2.8800     0.5600 1             1 RES     
    1322 1          -12.6120    -2.9720     0.1960 1             1 RES     
    1323 1          -13.0050    -2.7980     0.0780 1             1 RES     
    1324 1          -10.4690   -11.7440     5.4430 1             1 RES     
    1325 1          -10.7350   -11.9030     5.6440 1             1 RES     
    1326 1          -10.5960   -11.9870     6.0580 1             1 RES     
    1327 1           -4.0180    -1.3120    -2.9670 1             1 RES     
    1328 1           -4.3180    -1.0110    -3.3880 1             1 RES     
    1329 1           -4.0990    -0.9960    -3.7430 1             1 RES     
    1330 1            4.2510    -1.9300   -10.9430 1             1 RES     
    1331 1            4.3690    -1.6130   -11.2090 1             1 RES     
    1332 1            4.5560    -1.1600   -10.9350 1             1 RES     
    1333 1            0.0040    -1.5390    -8.0310 1             1 RES     
    1334 1            0.3330    -1.5240    -8.4950 1             1 RES     
    1335 1            0.1630    -1.3220    -8.8380 1             1 RES     
    1336 1            3.0360     6.0290     5.0090 1             1 RES     
    1337 1            2.9650     5.9320     5.2160 1             1 RES     
    1338 1            2.9710     5.4340     5.2020 1             1 RES     
    1339 1            6.8540     3.6360     0.1050 1             1 RES     
    1340 1            6.8100     3.8780    -0.2510 1             1 RES     
    1341 1            7.2290     4.2860    -0.2990 1             1 RES     
    1342 1            0.7630    -2.6350    -8.6690 1             1 RES     
    1343 1            0.7530    -2.3150    -9.0840 1             1 RES     
    1344 1            1.1260    -1.9610    -9.1130 1             1 RES     
    1345 1           -0.5920     4.8010     2.0860 1             1 RES     
    1346 1           -0.6640     4.4460     2.2580 1             1 RES     
    1347 1           -0.9340     4.5070     2.6220 1             1 RES     
    1348 1           12.1420    -2.8320    -4.2390 1             1 RES     
    1349 1           12.3180    -2.7370    -4.4860 1             1 RES     
    1350 1           12.3200    -2.2060    -4.5970 1             1 RES     
    1351 1           12.0220    -2.9850    10.5420 1             1 RES     
    1352 1           11.7640    -3.4730    10.6010 1             1 RES     
    1353 1           11.4760    -3.5450    11.0020 1             1 RES     
    1354 1            0.9460    -5.5720    -4.9980 1             1 RES     
    1355 1            0.9950    -5.9420    -4.9120 1             1 RES     
    1356 1            1.4250    -6.0890    -4.8540 1             1 RES     
    1357 1            2.2300     3.4920     7.8350 1             1 RES     
    1358 1            2.1150     3.7550     8.2460 1             1 RES     
    1359 1            2.4930     3.7180     8.5900 1             1 RES     
    1360 1          -12.0510   -12.1100     2.1130 1             1 RES     
    1361 1          -12.2390   -11.6570     2.2920 1             1 RES     
    1362 1          -12.3880   -11.6790     2.6860 1             1 RES     
    1363 1            7.8050     0.2340    -8.4970 1             1 RES     
    1364 1            7.9140    -0.1960    -8.5210 1             1 RES     
    1365 1            7.5260    -0.5840    -8.4140 1             1 RES     
    1366 1            4.4800   -10.2270     6.9440 1             1 RES     
    1367 1            4.2310   -10.1220     6.6840 1             1 RES     
    1368 1            4.2400    -9.6730     6.5540 1             1 RES     
    1369 1           -3.7280    -1.0540    -5.1980 1             1 RES     
    1370 1           -3.6870    -0.9820    -4.6700 1             1 RES     
    1371 1           -3.3530    -1.0330    -4.5040 1             1 RES     
    1372 1           -2.6060    12.0180    -6.7160 1             1 RES     
    1373 1           -2.1560    12.3340    -6.7380 1             1 RES     
    1374 1           -2.2190    12.7370    -6.9120 1             1 RES     
    1375 1            9.5870    11.4190    -0.0120 1             1 RES     
    1376 1            9.1770    11.7690     0.1280 1             1 RES     
    1377 1            9.2810    12.3140    -0.0000 1             1 RES     
    1378 1            8.3330    -0.1480    10.5810 1             1 RES     
    1379 1            8.6690    -0.2660    10.9510 1             1 RES     
    1380 1            8.9440    -0.3990    10.8310 1             1 RES     
    1381 1            4.9390    -9.0070     7.4740 1             1 RES     
    1382 1            4.9990    -8.7620     7.8730 1             1 RES     
    1383 1            5.1130    -8.3190     7.8300 1             1 RES     
    1384 1           10.3280    -6.5600   -11.7900 1             1 RES     
    1385 1            9.8860    -6.8750   -11.5980 1             1 RES     
    1386 1            9.5130    -6.6140   -11.5640 1             1 RES     
    1387 1           -4.3610    11.6820    11.6350 1             1 RES     
    1388 1           -4.3000    12.0300    11.8980 1             1 RES     
    1389 1           -4.5570    12.4130    11.8120 1             1 RES     
    1390 1            8.7360    -4.0110    10.9100 1             1 RES     
    1391 1            8.6190    -4.3550    10.3830 1             1 RES     
    1392 1            8.6160    -4.6810    10.4470 1             1 RES     
    1393 1            6.9690     8.3440    11.7670 1             1 RES     
    1394 1            6.9910     7.9550    11.8310 1             1 RES     
    1395 1            6.6270     7.8120    12.0460 1             1 RES     
    1396 1          -12.2640     1.6920   -11.7590 1             1 RES     
    1397 1          -12.8560     1.5140   -11.9270 1             1 RES     
    1398 1          -12.9040     1.1860   -12.1950 1             1 RES     
    1399 1           -1.4260    -0.2600     2.3530 1             1 RES     
    1400 1           -1.1480    -0.3650     2.5690 1             1 RES     
    1401 1           -1.1470    -0.2570     3.0090 1             1 RES     
    1402 1            9.5240   -10.1890     3.8440 1             1 RES     
    1403 1            9.7830   -10.3490     3.5630 1             1 RES     
    1404 1            9.6210   -10.8320     3.3890 1             1 RES     
    1405 1            5.9410     9.5610    10.8270 1             1 RES     
    1406 1            5.5340     9.7280    10.8420 1             1 RES     
    1407 1            5.2540     9.5530    11.1870 1             1 RES     
    1408 1            3.6800    11.7080     7.3550 1             1 RES     
    1409 1            3.3870    11.9960     6.9600 1             1 RES     
    1410 1            3.1520    12.2810     7.1210 1             1 RES     
    1411 1           -5.8780    -5.3140    11.2780 1             1 RES     
    1412 1           -5.7780    -5.3970    11.7410 1             1 RES     
    1413 1           -6.1300    -5.3810    12.1010 1             1 RES     
    1414 1            6.2880     2.6630     3.3390 1             1 RES     
    1415 1            6.5570     3.0380     3.1670 1             1 RES     
    1416 1            6.3530     3.4650     3.1290 1             1 RES     
    1417 1            6.7230   -11.3470   -10.6400 1             1 RES     
    1418 1            6.3420   -10.9550   -10.6480 1             1 RES     
    1419 1            6.2070   -10.8740   -10.2410 1             1 RES     
    1420 1           10.0490    -9.4890    -5.9150 1             1 RES     
    1421 1            9.6510    -9.5160    -5.8340 1             1 RES     
    1422 1            9.5170    -9.2010    -5.7640 1             1 RES     
    1423 1            9.2620   -11.3670    -6.5250 1             1 RES     
    1424 1            9.5110   -10.9280    -6.6760 1             1 RES     
    1425 1            9.3150   -10.4780    -6.5400 1             1 RES     
    1426 1           -8.0800    11.5300    11.5040 1             1 RES     
    1427 1           -8.3050    11.6580    11.8300 1             1 RES     
    1428 1           -8.9010    11.6630    11.7450 1             1 RES     
    1429 1           -2.2880    -5.4450     2.8240 1             1 RES     
    1430 1           -2.5680    -5.5800     3.1670 1             1 RES     
    1431 1           -2.8200    -5.3050     3.2790 1             1 RES     
    1432 1           -5.4200     6.6900   -11.8950 1             1 RES     
    1433 1           -4.9540     6.7930   -12.1580 1             1 RES     
    1434 1           -4.6110     6.3820   -12.1140 1             1 RES     
    1435 1           -6.9410   -11.3910     5.2040 1             1 RES     
    1436 1           -6.6250   -11.3190     4.9920 1             1 RES     
    1437 1           -6.5810   -11.6060     4.5810 1             1 RES     
    1438 1            8.6280     0.0810   -10.1530 1             1 RES     
    1439 1            8.4540     0.4040   -10.5810 1             1 RES     
    1440 1            8.7260     0.4700   -10.9000 1             1 RES     
    1441 1            9.6040    -9.7260    11.6090 1             1 RES     
    1442 1            9.4100    -9.9300    11.9020 1             1 RES     
    1443 1            9.4930   -10.2970    11.8980 1             1 RES     
    1444 1           -5.7160     2.3020     3.1910 1             1 RES     
    1445 1           -6.1550     2.3620     2.8720 1             1 RES     
    1446 1           -6.2450     2.8310     2.7100 1             1 RES     
    1447 1           -9.3970     4.3110     8.0890 1             1 RES     
    1448 1           -9.3050     4.8490     8.3610 1             1 RES     
    1449 1           -9.5700     5.1090     8.2780 1             1 RES     
    1450 1          -12.2190    -7.1370     0.2220 1             1 RES     
    1451 1          -12.1280    -6.6810     0.1670 1             1 RES     
    1452 1          -12.3790    -6.4360     0.4910 1             1 RES     
    1453 1            0.2040     0.3670     6.2590 1             1 RES     
    1454 1            0.4880     0.5250     6.6470 1             1 RES     
    1455 1            0.5580     0.2240     7.0080 1             1 RES     
    1456 1            7.5260    -9.1320     1.5420 1             1 RES     
    1457 1            7.6120    -9.2780     1.1580 1             1 RES     
    1458 1            7.6140    -8.9400     0.9150 1             1 RES     
    1459 1            5.4840     7.6130     6.7520 1             1 RES     
    1460 1            5.2830     7.5350     7.1610 1             1 RES     
    1461 1            5.4660     7.6750     7.4610 1             1 RES     
    1462 1           -3.2930     6.4840     6.1700 1             1 RES     
    1463 1           -3.1660     6.8460     5.9250 1             1 RES     
    1464 1           -2.7990     6.8010     5.7000 1             1 RES     
    1465 1            0.6070     7.9150    -9.2860 1             1 RES     
    1466 1            0.4670     8.3040    -9.0770 1             1 RES     
    1467 1            0.7890     8.6330    -8.8470 1             1 RES     
    1468 1           -6.4460    11.3130    10.2220 1             1 RES     
    1469 1           -6.3990    10.9610    10.6290 1             1 RES     
    1470 1           -6.3550    11.1150    11.0590 1             1 RES     
    1471 1            1.0750    -2.6360   -11.2610 1             1 RES     
    1472 1            0.5480    -2.2810   -11.3330 1             1 RES     
    1473 1            0.1150    -2.5660   -11.3770 1             1 RES     
    1474 1           -6.7300     8.9610     5.5330 1             1 RES     
    1475 1           -6.8110     9.4370     5.4470 1             1 RES     
    1476 1           -6.9020     9.6430     5.7520 1             1 RES     
    1477 1           12.4550     3.5790    10.1630 1             1 RES     
    1478 1           12.7840     3.4240    10.0420 1             1 RES     
    1479 1           12.8120     3.4250     9.4660 1             1 RES     
    1480 1            6.1860    -3.7970    -2.6700 1             1 RES     
    1481 1            6.2810    -3.9960    -2.9830 1             1 RES     
    1482 1            6.1630    -3.7560    -3.4270 1             1 RES     
    1483 1           -1.1670    -6.8930     4.8170 1             1 RES     
    1484 1           -1.3160    -7.2810     4.6710 1             1 RES     
    1485 1           -1.5010    -7.3030     4.0740 1             1 RES     
    1486 1            7.5930     1.1880     9.0460 1             1 RES     
    1487 1            7.8870     0.8340     8.8160 1             1 RES     
    1488 1            7.8530     0.3470     8.9420 1             1 RES     
    1489 1            7.7750     1.0420   -11.9370 1             1 RES     
    1490 1            7.4580     1.0160   -11.5990 1             1 RES     
    1491 1            7.0590     1.1160   -11.6960 1             1 RES     
    1492 1           -3.1330    -0.9730    -7.8100 1             1 RES     
    1493 1           -2.9080    -0.8250    -8.1030 1             1 RES     
    1494 1           -2.4750    -0.7290    -7.9860 1             1 RES     
    1495 1           11.7090     8.1630     7.9270 1             1 RES     
    1496 1           11.7100     8.3480     8.4400 1             1 RES     
    1497 1           12.0100     8.0190     8.7440 1             1 RES     
    1498 1           -8.6470    -7.7230    -2.4420 1             1 RES     
    1499 1           -9.1580    -7.5840    -2.6380 1             1 RES     
    1500 1           -9.4940    -7.7980    -2.3890 1             1 RES     
    1501 1           -7.9610     6.5400   -11.6820 1             1 RES     
    1502 1           -7.8900     6.8320   -11.9410 1             1 RES     
    1503 1           -8.1080     6.8550   -12.2750 1             1 RES     
    1504 1            5.7850    -6.7100     3.2400 1             1 RES     
    1505 1            6.1490    -6.9000     3.5480 1             1 RES     
    1506 1            6.4020    -7.2390     3.3580 1             1 RES     
    1507 1           11.7060     8.3660    10.1860 1             1 RES     
    1508 1           11.6190     8.5300     9.7770 1             1 RES     
    1509 1           11.5970     8.9420     9.7660 1             1 RES     
    1510 1            9.2000    -7.7160     0.2340 1             1 RES     
    1511 1            8.9650    -7.2800     0.3420 1             1 RES     
    1512 1            9.2520    -6.9940     0.6550 1             1 RES     
    1513 1           -8.4520   -11.6700    -4.8480 1             1 RES     
    1514 1           -8.8710   -11.3970    -4.6200 1             1 RES     
    1515 1           -9.2510   -11.4100    -4.8170 1             1 RES     
    1516 1            3.8040     3.7040    -0.8720 1             1 RES     
    1517 1            3.8060     3.3830    -0.6380 1             1 RES     
    1518 1            3.6570     3.4250    -0.2920 1             1 RES     
    1519 1          -12.3780    -0.8830     9.4120 1             1 RES     
    1520 1          -12.4320    -0.2840     9.1150 1             1 RES     
    1521 1          -12.0770     0.1370     9.3610 1             1 RES     
    1522 1           -6.8160    -4.1450     7.0240 1             1 RES     
    1523 1           -6.7970    -4.0030     7.4510 1             1 RES     
    1524 1           -7.1540    -4.0840     7.6660 1             1 RES     
    1525 1           -9.4730    -8.8140     0.4740 1             1 RES     
    1526 1           -9.2550    -8.4130     0.4970 1             1 RES     
    1527 1           -9.4770    -8.1350     0.3960 1             1 RES     
    1528 1            3.0610     5.1390   -12.5370 1             1 RES     
    1529 1            2.8250     5.1880   -12.9340 1             1 RES     
    1530 1            3.0460     5.3920   -13.2610 1             1 RES     
    1531 1            8.5660   -12.2760    -9.5310 1             1 RES     
    1532 1            8.6000   -12.7040    -9.4500 1             1 RES     
    1533 1            8.1340   -12.8920    -9.3230 1             1 RES     
    1534 1           -6.8930    -3.8850     0.1030 1             1 RES     
    1535 1           -6.6210    -3.4580     0.2090 1             1 RES     
    1536 1           -6.5780    -3.0180    -0.2120 1             1 RES     
    1537 1            3.5490    10.9730    -7.5020 1             1 RES     
    1538 1            3.4230    11.2700    -7.7480 1             1 RES     
    1539 1            3.7000    11.6650    -7.6820 1             1 RES     
    1540 1           11.8420     7.2210    -7.8990 1             1 RES     
    1541 1           12.0260     6.8890    -7.8460 1             1 RES     
    1542 1           12.4090     6.9050    -7.9580 1             1 RES     
    1543 1           -0.4600     4.6310     7.5100 1             1 RES     
    1544 1           -0.0670     4.8130     7.7330 1             1 RES     
    1545 1            0.3520     4.3570     8.0410 1             1 RES     
    1546 1          -11.9690    -5.7500     9.5130 1             1 RES     
    1547 1          -11.7860    -6.0660     9.3680 1             1 RES     
    1548 1          -11.8940    -6.4570     9.5840 1             1 RES     
    1549 1           -9.2650   -12.0420     5.8430 1             1 RES     
    1550 1           -9.3360   -11.9450     6.2800 1             1 RES     
    1551 1           -9.1550   -12.2530     6.5130 1             1 RES     
    1552 1            4.4210    -6.1130    -5.8510 1             1 RES     
    1553 1            4.7400    -5.8980    -5.8940 1             1 RES     
    1554 1            4.8170    -5.6360    -5.5990 1             1 RES     
    1555 1           -9.8950     4.3160    -0.3940 1             1 RES     
    1556 1           -9.4570     4.0880    -0.6790 1             1 RES     
    1557 1           -9.1680     4.3630    -0.7960 1             1 RES     
    1558 1            7.5630     8.5360    -0.8240 1             1 RES     
    1559 1            7.3740     8.6420    -0.4670 1             1 RES     
    1560 1            7.1650     8.9700    -0.4640 1             1 RES     
    1561 1            4.6120     3.4970     8.6400 1             1 RES     
    1562 1            5.0100     3.5250     8.2960 1             1 RES     
    1563 1            5.2590     3.2080     8.3200 1             1 RES     
    1564 1           -8.9650     6.0130   -11.5960 1             1 RES     
    1565 1           -9.2910     6.0260   -12.1080 1             1 RES     
    1566 1           -9.4470     5.6360   -12.2050 1             1 RES     
    1567 1           -0.7990     4.7960   -10.0280 1             1 RES     
    1568 1           -0.9630     5.2590   -10.1530 1             1 RES     
    1569 1           -0.6790     5.5080   -10.4290 1             1 RES     
    1570 1            3.9870    -2.7480     4.3510 1             1 RES     
    1571 1            3.4930    -3.1100     4.0360 1             1 RES     
    1572 1            3.6350    -3.4950     3.9140 1             1 RES     
    1573 1          -12.3250    -9.8380   -12.0170 1             1 RES     
    1574 1          -12.3860    -9.5000   -12.2690 1             1 RES     
    1575 1          -12.3560    -9.1350   -12.1000 1             1 RES     
    1576 1           -4.1740     7.8600     0.7430 1             1 RES     
    1577 1           -4.5580     8.1530     1.1920 1             1 RES     
    1578 1           -4.3470     8.1910     1.5600 1             1 RES     
    1579 1            2.9600     2.1100     8.8650 1             1 RES     
    1580 1            2.5860     2.1610     8.8160 1             1 RES     
    1581 1            2.4520     2.5620     8.6110 1             1 RES     
    1582 1            6.7310     1.9610     9.1570 1             1 RES     
    1583 1            6.2990     2.0970     9.3460 1             1 RES     
    1584 1            6.1070     2.3760     9.1340 1             1 RES     
    1585 1           11.7030     3.5420    -1.8160 1             1 RES     
    1586 1           11.2750     3.7790    -1.9690 1             1 RES     
    1587 1           11.0450     3.5940    -2.4680 1             1 RES     
    1588 1            9.6460     6.1540   -12.0030 1             1 RES     
    1589 1            9.7640     6.2170   -11.5840 1             1 RES     
    1590 1            9.7430     6.6760   -11.4450 1             1 RES     
    1591 1           11.5190     2.9570    11.7910 1             1 RES     
    1592 1           11.7610     2.9660    11.4980 1             1 RES     
    1593 1           12.2200     3.0940    11.6270 1             1 RES     
    1594 1            6.5870    10.0970    -1.9450 1             1 RES     
    1595 1            6.7360     9.7160    -1.7260 1             1 RES     
    1596 1            6.8200     9.3220    -1.9840 1             1 RES     
    1597 1            6.6250    10.5160     0.1540 1             1 RES     
    1598 1            7.0270    10.1710    -0.0390 1             1 RES     
    1599 1            7.0390    10.1740    -0.4930 1             1 RES     
    1600 1           -6.3020     6.5200    -4.7700 1             1 RES     
    1601 1           -6.4530     6.3330    -4.7690 1             1 RES     
    1602 1           -6.2440     5.9840    -4.7700 1             1 RES     
    1603 1           -7.9140   -10.8990     5.5220 1             1 RES     
    1604 1           -8.1980   -11.1890     5.2380 1             1 RES     
    1605 1           -8.5520   -10.9610     4.8650 1             1 RES     
    1606 1            9.3100    -1.6010     5.1900 1             1 RES     
    1607 1            9.3810    -1.1790     5.4940 1             1 RES     
    1608 1            9.3640    -1.3270     6.0650 1             1 RES     
    1609 1           -9.7850     6.9080    -8.4280 1             1 RES     
    1610 1           -9.3380     7.0770    -8.2580 1             1 RES     
    1611 1           -9.3810     7.2550    -7.9450 1             1 RES     
    1612 1           10.0640     5.4030     7.6250 1             1 RES     
    1613 1            9.5610     5.4710     7.3770 1             1 RES     
    1614 1            9.5540     5.7870     7.1090 1             1 RES     
    1615 1           -0.0250     7.4980     2.3860 1             1 RES     
    1616 1           -0.1120     7.8780     2.7930 1             1 RES     
    1617 1            0.2220     8.2010     2.7680 1             1 RES     
    1618 1            2.2400    -3.1380    11.2570 1             1 RES     
    1619 1            2.3180    -3.4750    10.8610 1             1 RES     
    1620 1            2.2970    -3.2650    10.2790 1             1 RES     
    1621 1            4.0050    -5.3330    -8.2240 1             1 RES     
    1622 1            3.5400    -5.5580    -7.8410 1             1 RES     
    1623 1            3.2060    -5.4690    -7.9500 1             1 RES     
    1624 1            6.9660    10.5820   -10.7490 1             1 RES     
    1625 1            6.7590    11.1740   -10.7030 1             1 RES     
    1626 1            7.1230    11.5640   -10.7410 1             1 RES     
    1627 1           -3.4250    -2.4230    -2.6780 1             1 RES     
    1628 1           -3.0030    -2.6020    -2.8640 1             1 RES     
    1629 1           -3.0040    -2.9440    -2.9530 1             1 RES     
    1630 1            7.2760     2.6430    12.3360 1             1 RES     
    1631 1            7.3770     2.3490    12.0180 1             1 RES     
    1632 1            7.7640     1.9640    12.0970 1             1 RES     
    1633 1           12.2910    -8.1520     2.4440 1             1 RES     
    1634 1           12.3130    -8.0840     1.9930 1             1 RES     
    1635 1           12.1360    -7.5500     1.8680 1             1 RES     
    1636 1            7.3680   -12.1120    -7.6620 1             1 RES     
    1637 1            7.3780   -12.1380    -7.1010 1             1 RES     
    1638 1            7.8210   -12.0950    -6.9370 1             1 RES     
    1639 1            8.0360    -3.8860     9.4490 1             1 RES     
    1640 1            7.9340    -3.5270     9.2860 1             1 RES     
    1641 1            7.8960    -3.5090     8.8530 1             1 RES     
    1642 1           -9.1490    -7.3040   -10.7790 1             1 RES     
    1643 1           -9.5300    -7.3790   -10.4160 1             1 RES     
    1644 1           -9.4700    -7.7100   -10.1920 1             1 RES     
    1645 1           -0.4190     1.5410     0.1230 1             1 RES     
    1646 1           -0.6680     1.4420     0.5580 1             1 RES     
    1647 1           -0.9970     1.2070     0.4640 1             1 RES     
    1648 1            4.4510     8.7740     0.7440 1             1 RES     
    1649 1            4.5890     9.1920     0.9330 1             1 RES     
    1650 1            4.3410     9.6160     0.6920 1             1 RES     
    1651 1            5.3310    -0.5100   -11.8820 1             1 RES     
    1652 1            4.9230    -0.8100   -12.1660 1             1 RES     
    1653 1            4.5910    -0.6410   -12.1890 1             1 RES     
    1654 1           -5.1750    -8.5150    -4.1190 1             1 RES     
    1655 1           -4.8540    -8.2730    -4.1920 1             1 RES     
    1656 1           -4.7810    -7.9210    -3.8460 1             1 RES     
    1657 1            3.3270    -2.2010     7.0490 1             1 RES     
    1658 1            3.6150    -2.5280     6.7550 1             1 RES     
    1659 1            3.9170    -2.6800     6.9550 1             1 RES     
    1660 1           -7.2690    -1.0330     0.6750 1             1 RES     
    1661 1           -7.4630    -1.2920     0.3250 1             1 RES     
    1662 1           -7.7560    -1.0900     0.0810 1             1 RES     
    1663 1           -5.0290    -0.8800    -9.4700 1             1 RES     
    1664 1           -5.4800    -0.9380    -9.2910 1             1 RES     
    1665 1           -5.7440    -0.6000    -9.2760 1             1 RES     
    1666 1           -5.5110    -6.3180     9.5570 1             1 RES     
    1667 1           -5.8110    -6.6860     9.8110 1             1 RES     
    1668 1           -6.1360    -6.9450     9.5120 1             1 RES     
    1669 1           -1.0970     0.7050    -9.7600 1             1 RES     
    1670 1           -1.1190     0.7860   -10.1890 1             1 RES     
    1671 1           -1.0280     1.2080   -10.3080 1             1 RES     
    1672 1          -10.4500    -3.7600     7.3770 1             1 RES     
    1673 1          -10.3130    -4.1790     7.3510 1             1 RES     
    1674 1          -10.3810    -4.4180     6.8560 1             1 RES     
    1675 1            4.1610    -6.2170     3.6370 1             1 RES     
    1676 1            4.1530    -5.9010     4.1300 1             1 RES     
    1677 1            4.2000    -6.1590     4.5530 1             1 RES     
    1678 1            8.9460   -11.4650     4.7290 1             1 RES     
    1679 1            8.4590   -11.1850     4.8600 1             1 RES     
    1680 1            8.3330   -11.0550     5.3700 1             1 RES     
    1681 1           11.6530    -4.4920     0.6470 1             1 RES     
    1682 1           11.5270    -4.1110     1.0460 1             1 RES     
    1683 1           11.0530    -4.0720     1.1470 1             1 RES     
    1684 1           11.7200   -11.7150   -11.7370 1             1 RES     
    1685 1           11.5300   -12.0660   -11.7150 1             1 RES     
    1686 1           11.5160   -12.1980   -11.3560 1             1 RES     
    1687 1           -5.5630    -2.8980    -9.2190 1             1 RES     
    1688 1           -5.6960    -3.3640    -9.4490 1             1 RES     
    1689 1           -6.0730    -3.4610    -9.3750 1             1 RES     
    1690 1            0.6030    -0.2800     4.4190 1             1 RES     
    1691 1            0.4400    -0.0840     4.6610 1             1 RES     
    1692 1            0.0890    -0.1930     4.6830 1             1 RES     
    1693 1           -8.0020    10.6830    -6.8370 1             1 RES     
    1694 1           -8.0300    11.0870    -6.5450 1             1 RES     
    1695 1           -7.6590    11.2260    -6.3330 1             1 RES     
    1696 1           -3.5970    -4.1760    -8.3460 1             1 RES     
    1697 1           -3.3000    -4.5180    -8.2300 1             1 RES     
    1698 1           -3.0350    -4.7130    -8.6330 1             1 RES     
    1699 1            5.6610     1.3990     6.8000 1             1 RES     
    1700 1            5.6630     0.9820     6.7980 1             1 RES     
    1701 1            5.7580     0.8180     7.2420 1             1 RES     
    1702 1            9.8870     2.6760   -11.5960 1             1 RES     
    1703 1            9.4970     2.8140   -11.3160 1             1 RES     
    1704 1            9.1670     2.9990   -11.5330 1             1 RES     
    1705 1           -6.7650     8.4920   -10.6040 1             1 RES     
    1706 1           -6.4280     8.6700   -10.6170 1             1 RES     
    1707 1           -6.4020     9.0980   -10.8530 1             1 RES     
    1708 1           -5.4460    -5.8190    -9.9900 1             1 RES     
    1709 1           -5.3530    -5.9710    -9.7690 1             1 RES     
    1710 1           -5.6840    -6.2380    -9.5150 1             1 RES     
    1711 1           -0.4270     2.1300    -4.5580 1             1 RES     
    1712 1           -0.6190     2.4120    -4.8860 1             1 RES     
    1713 1           -0.7750     2.0850    -5.3330 1             1 RES     
    1714 1            4.2860    -5.9720    -2.7970 1             1 RES     
    1715 1            4.0260    -5.9750    -2.4790 1             1 RES     
    1716 1            3.6880    -5.7090    -2.5500 1             1 RES     
    1717 1           -6.3980     9.9570     1.7100 1             1 RES     
    1718 1           -6.7100    10.0800     1.4650 1             1 RES     
    1719 1           -6.8560     9.7560     1.1270 1             1 RES     
    1720 1           -1.5990    -0.1130    -3.7470 1             1 RES     
    1721 1           -1.6000    -0.2670    -3.3110 1             1 RES     
    1722 1           -1.5390    -0.6520    -3.2560 1             1 RES     
    1723 1           10.4020     0.7210     7.7020 1             1 RES     
    1724 1           10.3270     0.6880     8.0980 1             1 RES     
    1725 1            9.9810     0.2970     8.2000 1             1 RES     
    1726 1            7.4330     2.6770     8.8380 1             1 RES     
    1727 1            7.6460     3.0770     8.7350 1             1 RES     
    1728 1            7.8720     3.2830     9.0830 1             1 RES     
    1729 1           11.4710    -9.3360     0.6900 1             1 RES     
    1730 1           11.7190    -9.1960     1.1490 1             1 RES     
    1731 1           11.9240    -8.8440     1.1320 1             1 RES     
    1732 1            8.5440     5.1390    -1.2930 1             1 RES     
    1733 1            9.0300     5.1650    -1.4460 1             1 RES     
    1734 1            9.1330     5.1730    -1.9600 1             1 RES     
    1735 1           -5.4870    11.3260     9.7660 1             1 RES     
    1736 1           -5.3630    11.7240     9.4310 1             1 RES     
    1737 1           -5.6740    12.1330     9.4430 1             1 RES     
    1738 1            8.4310    10.5130    -1.7560 1             1 RES     
    1739 1            8.3190    10.2220    -1.5090 1             1 RES     
    1740 1            8.5210    10.2150    -1.1660 1             1 RES     
    1741 1           -2.7940     2.5410     1.0640 1             1 RES     
    1742 1           -3.0380     2.3580     1.3210 1             1 RES     
    1743 1           -3.3680     2.4700     1.2700 1             1 RES     
    1744 1            7.7640     5.5040     6.6230 1             1 RES     
    1745 1            8.1140     5.3540     6.6360 1             1 RES     
    1746 1            8.1550     4.8120     6.3870 1             1 RES     
    1747 1           -2.9160    -4.9080     5.2950 1             1 RES     
    1748 1           -3.3220    -4.7970     5.1210 1             1 RES     
    1749 1           -3.4830    -5.0520     4.8910 1             1 RES     
    1750 1           10.1960    12.5700    10.3130 1             1 RES     
    1751 1           10.5680    12.8370    10.4630 1             1 RES     
    1752 1           11.0690    12.6470    10.3560 1             1 RES     
    1753 1           10.6370    -1.3400     4.8180 1             1 RES     
    1754 1           10.6030    -1.6540     5.1660 1             1 RES     
    1755 1           10.8620    -1.6310     5.3760 1             1 RES     
    1756 1            0.0430    -8.5500     7.6400 1             1 RES     
    1757 1            0.2750    -8.0830     7.6160 1             1 RES     
    1758 1            0.1240    -7.7740     7.8420 1             1 RES     
    1759 1           -5.1680    11.4820     6.5360 1             1 RES     
    1760 1           -5.4870    11.3180     6.3240 1             1 RES     
    1761 1           -5.9280    11.4950     6.5130 1             1 RES     
    1762 1           -3.1330    12.1650   -11.0590 1             1 RES     
    1763 1           -3.6310    12.2320   -11.1990 1             1 RES     
    1764 1           -3.6710    12.6290   -11.3100 1             1 RES     
    1765 1            9.6460     7.8170     7.1480 1             1 RES     
    1766 1            9.6110     7.3860     7.5070 1             1 RES     
    1767 1            9.4130     7.0140     7.3200 1             1 RES     
    1768 1            5.3680   -11.9540    -5.9690 1             1 RES     
    1769 1            5.4410   -12.3240    -5.6960 1             1 RES     
    1770 1            5.5700   -12.2270    -5.2770 1             1 RES     
    1771 1            5.9130    12.2490   -10.4790 1             1 RES     
    1772 1            6.0260    11.9240   -10.7870 1             1 RES     
    1773 1            5.6790    11.7260   -10.9570 1             1 RES     
    1774 1           -7.1080     2.2750    -4.7790 1             1 RES     
    1775 1           -7.6000     2.3050    -4.9480 1             1 RES     
    1776 1           -7.8420     2.5380    -4.7570 1             1 RES     
    1777 1           10.4120     1.7090   -11.7180 1             1 RES     
    1778 1           10.8150     1.7150   -11.5520 1             1 RES     
    1779 1           11.0850     1.3230   -11.5630 1             1 RES     
    1780 1            1.6330    -4.8940   -11.3860 1             1 RES     
    1781 1            1.4550    -4.8390   -10.9760 1             1 RES     
    1782 1            1.1150    -5.0220   -10.9470 1             1 RES     
    1783 1          -11.9380    10.0360   -10.9830 1             1 RES     
    1784 1          -12.1660    10.3790   -10.7090 1             1 RES     
    1785 1          -12.0180    10.3880   -10.2460 1             1 RES     
    1786 1            4.0410     2.6350     9.0990 1             1 RES     
    1787 1            3.7340     2.7560     9.4460 1             1 RES     
    1788 1            3.7170     3.2230     9.5810 1             1 RES     
    1789 1           12.5580    -0.6470    -0.3420 1             1 RES     
    1790 1           12.8170    -0.8770    -0.0150 1             1 RES     
    1791 1           13.0560    -1.2230    -0.1200 1             1 RES     
    1792 1            8.4710     3.5160    -4.5050 1             1 RES     
    1793 1            8.1200     3.1620    -4.4060 1             1 RES     
    1794 1            8.2970     2.6670    -4.3970 1             1 RES     
    1795 1            5.1030    -6.0760    -3.6860 1             1 RES     
    1796 1            5.1440    -5.7390    -3.6790 1             1 RES     
    1797 1            4.9760    -5.5560    -4.0720 1             1 RES     
    1798 1            5.2320     3.1370     4.6110 1             1 RES     
    1799 1            5.6100     3.4090     4.5870 1             1 RES     
    1800 1            5.8670     3.3190     4.2140 1             1 RES     
    1801 1           12.0220     9.4800     4.6420 1             1 RES     
    1802 1           12.3760     9.5040     4.4870 1             1 RES     
    1803 1           12.4000     9.5220     3.9900 1             1 RES     
    1804 1            5.5650    10.5900    -5.4560 1             1 RES     
    1805 1            5.9310    10.8030    -5.3410 1             1 RES     
    1806 1            6.0460    10.7170    -5.1160 1             1 RES     
    1807 1           -6.6580     5.7220   -12.2450 1             1 RES     
    1808 1           -6.1970     5.7290   -12.5300 1             1 RES     
    1809 1           -5.7840     5.6830   -12.2970 1             1 RES     
    1810 1           -5.1450    -0.6690    10.4760 1             1 RES     
    1811 1           -4.7520    -0.4930    10.4200 1             1 RES     
    1812 1           -4.7570    -0.0170    10.1670 1             1 RES     
    1813 1            0.4070    -3.9740    11.7120 1             1 RES     
    1814 1            0.0670    -4.0590    11.9740 1             1 RES     
    1815 1           -0.1360    -3.7260    12.2220 1             1 RES     
    1816 1            5.0000   -11.7920    10.3140 1             1 RES     
    1817 1            4.6240   -11.5980    10.1770 1             1 RES     
    1818 1            4.5870   -11.5560     9.7230 1             1 RES     
    1819 1           -5.8680     7.4480    12.4590 1             1 RES     
    1820 1           -5.5900     7.9210    12.2880 1             1 RES     
    1821 1           -5.2190     7.9900    12.5150 1             1 RES     
    1822 1           -6.8630     4.1320    -2.6900 1             1 RES     
    1823 1           -6.4670     4.1970    -2.9500 1             1 RES     
    1824 1           -6.2260     3.8570    -2.9550 1             1 RES     
    1825 1           -9.4940    10.8990   -11.9270 1             1 RES     
    1826 1           -9.0520    10.6880   -11.9420 1             1 RES     
    1827 1           -8.9330    10.4710   -11.5690 1             1 RES     
    1828 1            9.5000   -11.9300    -5.5530 1             1 RES     
    1829 1            9.7920   -11.8400    -5.3680 1             1 RES     
    1830 1            9.9360   -12.1780    -5.1140 1             1 RES     
    1831 1           -6.2670     5.3440    10.8360 1             1 RES     
    1832 1           -6.0100     5.4130    11.2050 1             1 RES     
    1833 1           -5.4980     5.3570    11.0920 1             1 RES     
    1834 1           -1.0580     7.2510     5.9490 1             1 RES     
    1835 1           -1.3440     6.9440     6.1020 1             1 RES     
    1836 1           -1.6160     7.0420     6.1770 1             1 RES     
    1837 1           -8.3520    -4.2770     1.7750 1             1 RES     
    1838 1           -8.6140    -4.3120     1.4420 1             1 RES     
    1839 1           -8.4920    -4.0010     1.0450 1             1 RES     
    1840 1           -9.1870     2.6230    -3.6400 1             1 RES     
    1841 1           -9.4060     2.5610    -3.1740 1             1 RES     
    1842 1           -9.8370     2.5210    -3.1790 1             1 RES     
    1843 1            4.4670    10.9790    10.8580 1             1 RES     
    1844 1            4.7360    11.2040    10.7150 1             1 RES     
    1845 1            4.5660    11.5120    10.4080 1             1 RES     
    1846 1           -2.0400    -9.8430   -12.4760 1             1 RES     
    1847 1           -1.8230    -9.6170   -12.2550 1             1 RES     
    1848 1           -1.4310    -9.7380   -12.2810 1             1 RES     
    1849 1           -8.6580     6.6090     4.2890 1             1 RES     
    1850 1           -8.2930     6.5360     4.3130 1             1 RES     
    1851 1           -8.0840     6.3680     3.9260 1             1 RES     
    1852 1           -8.7280    -2.7130    -0.9770 1             1 RES     
    1853 1           -8.4280    -2.8880    -0.8270 1             1 RES     
    1854 1           -8.3820    -2.8070    -0.4900 1             1 RES     
    1855 1           -4.4130     5.4630    -2.3540 1             1 RES     
    1856 1           -4.8000     5.6980    -2.3640 1             1 RES     
    1857 1           -4.7500     6.1370    -2.4960 1             1 RES     
    1858 1           -4.8650     0.3400    -1.8980 1             1 RES     
    1859 1           -4.4490     0.3050    -1.7640 1             1 RES     
    1860 1           -4.2540     0.5590    -1.7890 1             1 RES     
    1861 1          -11.9730     7.9190   -10.0440 1             1 RES     
    1862 1          -12.3900     7.7000    -9.9820 1             1 RES     
    1863 1          -12.4690     7.4660   -10.2520 1             1 RES     
    1864 1            0.4650    -5.4810     7.5610 1             1 RES     
    1865 1           -0.0660    -5.4250     7.2460 1             1 RES     
    1866 1           -0.3140    -5.2850     7.4040 1             1 RES     
    1867 1           -1.1290    -2.9530    -7.6840 1             1 RES     
    1868 1           -0.8470    -2.6860    -7.7370 1             1 RES     
    1869 1           -0.5820    -2.5830    -7.2410 1             1 RES     
    1870 1           10.2180     5.9410     1.1600 1             1 RES     
    1871 1           10.2430     6.0370     1.6000 1             1 RES     
    1872 1           10.3980     5.7500     1.8530 1             1 RES     
    1873 1            4.1910   -12.0910     1.5780 1             1 RES     
    1874 1            4.5780   -12.4260     1.5450 1             1 RES     
    1875 1            4.4430   -12.7680     1.4310 1             1 RES     
    1876 1           -6.2110     3.4130    -5.2800 1             1 RES     
    1877 1           -6.0990     3.7020    -5.6740 1             1 RES     
    1878 1           -6.3770     4.0850    -5.6430 1             1 RES     
    1879 1            3.2550    -0.7240     9.9610 1             1 RES     
    1880 1            3.1790    -0.3080    10.3280 1             1 RES     
    1881 1            3.1050    -0.4940    10.7270 1             1 RES     
    1882 1           10.4810     1.9800    -3.2670 1             1 RES     
    1883 1           10.3470     2.1940    -2.9640 1             1 RES     
    1884 1           10.4420     2.0700    -2.6450 1             1 RES     
    1885 1            7.0120     0.7070    -0.9010 1             1 RES     
    1886 1            6.8120     0.5430    -0.6490 1             1 RES     
    1887 1            6.9940     0.1000    -0.3770 1             1 RES     
    1888 1           -3.9930    10.9060     0.3110 1             1 RES     
    1889 1           -3.9520    10.4430     0.1540 1             1 RES     
    1890 1           -3.5470    10.3890     0.0020 1             1 RES     
    1891 1           -5.5970     4.9660     4.7140 1             1 RES     
    1892 1           -5.7600     4.8520     5.2180 1             1 RES     
    1893 1           -6.0670     5.1850     5.3820 1             1 RES     
    1894 1            1.2790    -3.6300    -5.8380 1             1 RES     
    1895 1            1.6570    -3.9570    -5.9740 1             1 RES     
    1896 1            1.6690    -3.9470    -6.5310 1             1 RES     
    1897 1            2.6850    -5.2600    -4.0550 1             1 RES     
    1898 1            2.8730    -5.2690    -4.5220 1             1 RES     
    1899 1            2.9440    -5.7020    -4.7150 1             1 RES     
    1900 1           -5.4950    -7.1630    -8.5700 1             1 RES     
    1901 1           -5.7780    -7.2980    -8.8640 1             1 RES     
    1902 1           -5.5890    -7.2910    -9.3420 1             1 RES     
    1903 1           -4.5660     1.4710     2.7330 1             1 RES     
    1904 1           -4.4950     0.9630     2.8230 1             1 RES     
    1905 1           -4.9210     0.7490     3.0210 1             1 RES     
    1906 1            9.2470     4.5030    -4.4310 1             1 RES     
    1907 1            9.6070     4.2990    -4.4930 1             1 RES     
    1908 1            9.9480     4.4640    -4.3040 1             1 RES     
    1909 1            5.2770    11.2850    -6.2590 1             1 RES     
    1910 1            4.8100    10.9830    -6.2130 1             1 RES     
    1911 1            4.7190    10.7440    -6.6280 1             1 RES     
    1912 1           -0.1030    12.1160     8.5090 1             1 RES     
    1913 1            0.3310    12.1280     8.1810 1             1 RES     
    1914 1            0.6860    12.1720     8.3580 1             1 RES     
    1915 1            4.3870    -9.6690   -12.5350 1             1 RES     
    1916 1            4.2070    -9.5650   -12.7100 1             1 RES     
    1917 1            4.1280    -9.0710   -12.6860 1             1 RES     
    1918 1           12.5600    -3.4200   -11.5620 1             1 RES     
    1919 1           12.8670    -3.6190   -11.7240 1             1 RES     
    1920 1           13.2140    -3.4430   -11.7060 1             1 RES     
    1921 1           12.3120     0.6640     1.3460 1             1 RES     
    1922 1           12.5760     0.9390     1.1930 1             1 RES     
    1923 1           12.4020     1.2750     0.8850 1             1 RES     
    1924 1           -3.3810     4.8250     5.9550 1             1 RES     
    1925 1           -3.0260     4.6020     5.6900 1             1 RES     
    1926 1           -3.1940     4.2060     5.4520 1             1 RES     
    1927 1          -12.0910    -0.7620     4.7150 1             1 RES     
    1928 1          -12.1480    -0.9930     4.2620 1             1 RES     
    1929 1          -12.2140    -0.7640     3.9050 1             1 RES     
    1930 1          -12.4610    -6.8300    -9.2040 1             1 RES     
    1931 1          -12.1980    -6.8770    -9.4150 1             1 RES     
    1932 1          -11.8170    -6.9230    -9.2060 1             1 RES     
    1933 1            7.3950    -9.3370    -2.3820 1             1 RES     
    1934 1            7.1180    -9.1640    -2.2240 1             1 RES     
    1935 1            6.8370    -9.4070    -2.0930 1             1 RES     
    1936 1          -12.3450     5.9570    11.4450 1             1 RES     
    1937 1          -12.4530     5.7090    11.1030 1             1 RES     
    1938 1          -12.9640     5.5260    11.1060 1             1 RES     
    1939 1          -12.2160     4.7400    10.4260 1             1 RES     
    1940 1          -11.9860     4.6450    10.1390 1             1 RES     
    1941 1          -12.1370     4.7330     9.8110 1             1 RES     
    1942 1            8.1430     5.4740     0.8350 1             1 RES     
    1943 1            7.8240     5.7590     0.7450 1             1 RES     
    1944 1            7.4310     5.6880     0.9070 1             1 RES     
    1945 1           -7.5140     0.0870    -7.0070 1             1 RES     
    1946 1           -7.3960     0.5020    -6.9120 1             1 RES     
    1947 1           -7.6800     0.7380    -6.8700 1             1 RES     
    1948 1           -3.6390    -7.5460    -9.4390 1             1 RES     
    1949 1           -4.1510    -7.2370    -9.3640 1             1 RES     
    1950 1           -4.2130    -6.7300    -9.6670 1             1 RES     
    1951 1            3.7510     0.4900     6.6400 1             1 RES     
    1952 1            3.7580    -0.0030     6.7690 1             1 RES     
    1953 1            3.4900    -0.1200     6.9520 1             1 RES     
    1954 1           -5.8800    10.4140   -12.4660 1             1 RES     
    1955 1           -6.2730    10.2840   -12.6760 1             1 RES     
    1956 1           -6.4810     9.9780   -12.4460 1             1 RES     
    1957 1           -9.0610    -7.1830     8.6990 1             1 RES     
    1958 1           -8.7690    -7.6210     8.6200 1             1 RES     
    1959 1           -8.9000    -7.9410     8.8050 1             1 RES     
    1960 1          -11.4790     9.8450     4.3140 1             1 RES     
    1961 1          -11.0740     9.7650     4.0370 1             1 RES     
    1962 1          -10.8290    10.0390     4.0510 1             1 RES     
    1963 1            4.3550    11.2860    -1.5990 1             1 RES     
    1964 1            4.3610    11.7490    -1.4380 1             1 RES     
    1965 1            4.8320    11.9410    -1.4410 1             1 RES     
    1966 1            5.3230    -9.7940    12.5310 1             1 RES     
    1967 1            5.5660    -9.8140    12.1350 1             1 RES     
    1968 1            6.1610   -10.0730    12.2090 1             1 RES     
    1969 1           11.1570     4.4580    11.8500 1             1 RES     
    1970 1           11.3030     4.4430    11.3780 1             1 RES     
    1971 1           11.5010     4.1430    11.2550 1             1 RES     
    1972 1            9.0630    10.4050     0.8320 1             1 RES     
    1973 1            9.1910    10.0080     1.0160 1             1 RES     
    1974 1            8.7900     9.7500     1.2330 1             1 RES     
    1975 1            6.3180     4.4000    -8.6320 1             1 RES     
    1976 1            6.4780     3.9490    -8.4140 1             1 RES     
    1977 1            6.8810     3.8520    -8.5110 1             1 RES     
    1978 1            5.5950    -4.0870    -4.4560 1             1 RES     
    1979 1            5.3610    -4.2600    -4.4470 1             1 RES     
    1980 1            5.2480    -4.4940    -3.9730 1             1 RES     
    1981 1           12.3200    -4.3710    11.4650 1             1 RES     
    1982 1           12.0230    -4.5590    11.3660 1             1 RES     
    1983 1           11.7290    -4.4460    11.5590 1             1 RES     
    1984 1           -5.5670    -4.4820     3.8270 1             1 RES     
    1985 1           -5.0920    -4.3400     3.9550 1             1 RES     
    1986 1           -4.9760    -4.0950     3.7410 1             1 RES     
    1987 1            0.9020    -5.4770     0.9480 1             1 RES     
    1988 1            0.7660    -5.7360     1.3110 1             1 RES     
    1989 1            1.1020    -5.9540     1.5210 1             1 RES     
    1990 1           -2.3260    -4.5900     3.9280 1             1 RES     
    1991 1           -2.0440    -4.7340     4.1250 1             1 RES     
    1992 1           -2.1710    -4.8140     4.5150 1             1 RES     
    1993 1            1.1550    -5.3610    12.0210 1             1 RES     
    1994 1            0.6860    -5.3950    11.8180 1             1 RES     
    1995 1            0.3410    -5.1780    12.1000 1             1 RES     
    1996 1           -4.8220    -3.2400    -2.4060 1             1 RES     
    1997 1           -4.9680    -3.4100    -2.7240 1             1 RES     
    1998 1           -4.7760    -3.2130    -3.1950 1             1 RES     
    1999 1           -3.2630     9.3720    -1.9460 1             1 RES     
    2000 1           -3.7270     9.6370    -1.6270 1             1 RES     
    2001 1           -3.8300     9.4360    -1.3360 1             1 RES     
    2002 1           -2.6630    -0.3240    10.9170 1             1 RES     
    2003 1           -2.3450    -0.1740    10.4620 1             1 RES     
    2004 1           -1.9310    -0.3120    10.4820 1             1 RES     
    2005 1           11.9730    -5.7080    10.3120 1             1 RES     
    2006 1           12.1970    -5.8970    10.4660 1             1 RES     
    2007 1           12.0630    -5.9700    10.8630 1             1 RES     
    2008 1           -1.8010     7.1800    10.7960 1             1 RES     
    2009 1           -1.8230     7.2050    10.2090 1             1 RES     
    2010 1           -1.5460     7.3270    10.0520 1             1 RES     
    2011 1           -6.3960    -0.6370     3.5180 1             1 RES     
    2012 1           -6.6190    -0.6420     3.8160 1             1 RES     
    2013 1           -6.6390    -0.9230     3.9710 1             1 RES     
    2014 1           -0.9820    -2.8030    -5.3050 1             1 RES     
    2015 1           -1.1880    -2.5680    -4.9560 1             1 RES     
    2016 1           -1.3180    -2.3060    -5.0370 1             1 RES     
    2017 1            4.0570   -11.5500   -12.1320 1             1 RES     
    2018 1            3.6090   -11.8670   -12.2420 1             1 RES     
    2019 1            3.4630   -12.0870   -11.9100 1             1 RES     
    2020 1           -8.7900     7.7580    12.0660 1             1 RES     
    2021 1           -8.5900     7.4090    11.9420 1             1 RES     
    2022 1           -8.8280     7.0860    11.7640 1             1 RES     
    2023 1           11.9890    12.4770     6.8370 1             1 RES     
    2024 1           11.8410    12.2000     7.1610 1             1 RES     
    2025 1           12.0210    12.2660     7.6300 1             1 RES     
    2026 1            0.9720     1.4570    -5.1420 1             1 RES     
    2027 1            0.7200     1.4420    -5.2850 1             1 RES     
    2028 1            0.3990     1.8770    -5.0800 1             1 RES     
    2029 1          -12.0070    12.0110     6.2560 1             1 RES     
    2030 1          -11.8880    12.5030     6.3810 1             1 RES     
    2031 1          -12.0940    12.6000     6.7350 1             1 RES     
    2032 1           -7.6180   -10.3180     9.3860 1             1 RES     
    2033 1           -7.2990   -10.6170     9.3540 1             1 RES     
    2034 1           -7.1800   -10.8250     9.6700 1             1 RES     
    2035 1          -12.5770    10.3390     6.2210 1             1 RES     
    2036 1          -13.0220    10.0130     6.3560 1             1 RES     
    2037 1          -12.9790     9.7700     6.8930 1             1 RES     
    2038 1            3.5960    -1.8290    -7.2570 1             1 RES     
    2039 1            3.4990    -1.4270    -7.1240 1             1 RES     
    2040 1            3.7990    -1.1510    -7.2050 1             1 RES     
    2041 1            1.4630    -9.5380    -9.3500 1             1 RES     
    2042 1            1.4400    -9.3930    -8.7920 1             1 RES     
    2043 1            1.8130    -9.4730    -8.6110 1             1 RES     
    2044 1            3.1080    -6.0410     7.5600 1             1 RES     
    2045 1            2.7810    -6.0760     7.8920 1             1 RES     
    2046 1            2.4610    -5.6810     7.9250 1             1 RES     
    2047 1           -2.3290    11.0600    -7.6060 1             1 RES     
    2048 1           -2.8260    11.0030    -7.5010 1             1 RES     
    2049 1           -3.0750    10.9730    -7.7840 1             1 RES     
    2050 1            3.8500    -7.7610    -7.0520 1             1 RES     
    2051 1            4.3050    -7.6820    -7.0420 1             1 RES     
    2052 1            4.4740    -7.9050    -7.1320 1             1 RES     
    2053 1          -10.1480    -0.4760     1.1450 1             1 RES     
    2054 1          -10.1750    -0.6310     1.5820 1             1 RES     
    2055 1           -9.8990    -0.3780     1.9220 1             1 RES     
    2056 1           12.0660    -1.6470    -0.2790 1             1 RES     
    2057 1           11.7010    -1.5060    -0.5170 1             1 RES     
    2058 1           11.8110    -1.3390    -0.9640 1             1 RES     
    2059 1           10.1720     3.3940    11.8820 1             1 RES     
    2060 1            9.7720     3.2230    12.1420 1             1 RES     
    2061 1            9.6050     3.5220    12.5220 1             1 RES     
    2062 1           -1.3500    -9.6620     3.0180 1             1 RES     
    2063 1           -1.3220    -9.8280     3.2990 1             1 RES     
    2064 1           -1.1580   -10.3010     3.2060 1             1 RES     
    2065 1           10.3470     4.9890   -11.8000 1             1 RES     
    2066 1            9.9470     5.0340   -12.0700 1             1 RES     
    2067 1            9.9600     4.8230   -12.4950 1             1 RES     
    2068 1            1.8490     1.1300    -4.5700 1             1 RES     
    2069 1            1.9420     1.6580    -4.4740 1             1 RES     
    2070 1            2.2780     1.7930    -4.0110 1             1 RES     
    2071 1           12.3220    -6.0940    -6.7500 1             1 RES     
    2072 1           12.3500    -5.7020    -6.9310 1             1 RES     
    2073 1           12.6840    -5.6890    -7.3020 1             1 RES     
    2074 1          -10.6760     7.1660     8.5770 1             1 RES     
    2075 1          -10.4990     6.6980     8.3810 1             1 RES     
    2076 1          -10.8330     6.3670     8.4250 1             1 RES     
    2077 1            2.5050    -6.8200    -5.2820 1             1 RES     
    2078 1            3.0100    -6.8230    -5.3770 1             1 RES     
    2079 1            3.2720    -7.2300    -5.1590 1             1 RES     
    2080 1            5.6090   -11.6420    -2.3250 1             1 RES     
    2081 1            5.1270   -11.7200    -2.3970 1             1 RES     
    2082 1            5.0380   -11.9600    -2.6460 1             1 RES     
    2083 1           11.3070    -0.8130     9.0260 1             1 RES     
    2084 1           11.2650    -0.8740     9.5690 1             1 RES     
    2085 1           11.5070    -0.6140     9.8120 1             1 RES     
    2086 1            1.3810     2.3170     2.7260 1             1 RES     
    2087 1            1.2510     2.0040     2.6640 1             1 RES     
    2088 1            1.4700     1.8340     2.2320 1             1 RES     
    2089 1           -3.0890   -11.4850    10.1540 1             1 RES     
    2090 1           -2.7260   -11.6730    10.4190 1             1 RES     
    2091 1           -2.6060   -12.0790    10.3360 1             1 RES     
    2092 1          -12.5520    -8.9100     5.0730 1             1 RES     
    2093 1          -12.3040    -8.4450     5.0780 1             1 RES     
    2094 1          -12.3390    -8.2510     4.7150 1             1 RES     
    2095 1          -11.3630    -6.7210    -6.6260 1             1 RES     
    2096 1          -11.2570    -6.5650    -6.9330 1             1 RES     
    2097 1          -11.0710    -6.8400    -7.2730 1             1 RES     
    2098 1            8.5390    -4.5940     8.3070 1             1 RES     
    2099 1            8.2090    -4.8240     8.4320 1             1 RES     
    2100 1            8.2740    -5.1390     8.5820 1             1 RES     
    2101 1           -8.9940     7.8340    10.0570 1             1 RES     
    2102 1           -8.4970     7.9100    10.1530 1             1 RES     
    2103 1           -8.3420     8.0790    10.7320 1             1 RES     
    2104 1           -9.5380     5.3940     6.9180 1             1 RES     
    2105 1           -9.8680     5.2190     7.2390 1             1 RES     
    2106 1          -10.0740     5.4290     7.3300 1             1 RES     
    2107 1            3.6390    -8.6380   -11.2690 1             1 RES     
    2108 1            3.5340    -8.4960   -11.6760 1             1 RES     
    2109 1            3.8780    -8.4030   -11.9200 1             1 RES     
    2110 1           -0.8900   -10.5610    -0.0390 1             1 RES     
    2111 1           -0.7290   -10.8550    -0.4340 1             1 RES     
    2112 1           -0.9760   -11.3720    -0.5040 1             1 RES     
    2113 1            7.2230    -3.4080   -11.7020 1             1 RES     
    2114 1            7.6350    -3.3770   -11.6910 1             1 RES     
    2115 1            7.8160    -3.3600   -12.0670 1             1 RES     
    2116 1           11.8680    -0.2780   -11.0380 1             1 RES     
    2117 1           11.5870     0.1160   -11.2820 1             1 RES     
    2118 1           11.6750     0.1420   -11.7340 1             1 RES     
    2119 1            4.8880     6.7670     2.3960 1             1 RES     
    2120 1            5.0010     7.2660     2.6440 1             1 RES     
    2121 1            4.8330     7.7000     2.4390 1             1 RES     
    2122 1            6.5740     3.4160    10.9610 1             1 RES     
    2123 1            6.3210     3.2060    11.0590 1             1 RES     
    2124 1            6.4040     2.8960    11.2640 1             1 RES     
    2125 1          -11.3710     6.2320   -10.0500 1             1 RES     
    2126 1          -11.0140     6.4120    -9.8850 1             1 RES     
    2127 1          -10.6280     6.1170    -9.9100 1             1 RES     
    2128 1            8.2100     3.3460    11.7350 1             1 RES     
    2129 1            8.3610     3.5870    11.4830 1             1 RES     
    2130 1            8.1670     3.9140    11.4330 1             1 RES     
    2131 1           -2.6010    -9.8530    -8.9320 1             1 RES     
    2132 1           -2.3270    -9.5100    -9.0010 1             1 RES     
    2133 1           -2.5290    -9.1280    -9.0810 1             1 RES     
    2134 1           -7.5480    -3.6220    -1.0680 1             1 RES     
    2135 1           -7.1300    -3.4800    -1.1680 1             1 RES     
    2136 1           -7.0260    -3.6170    -1.6370 1             1 RES     
    2137 1            4.4070    -2.6550    -0.0730 1             1 RES     
    2138 1            4.0000    -2.8340    -0.1590 1             1 RES     
    2139 1            3.8160    -2.8750    -0.7290 1             1 RES     
    2140 1            1.6930    -6.0360    -2.4470 1             1 RES     
    2141 1            1.9600    -6.3200    -2.7230 1             1 RES     
    2142 1            1.7420    -6.6610    -2.8380 1             1 RES     
    2143 1            9.1310    10.0740     8.5640 1             1 RES     
    2144 1            9.5380    10.3220     8.7060 1             1 RES     
    2145 1            9.7910    10.5400     8.3680 1             1 RES     
    2146 1           -4.3020     7.1980     7.9640 1             1 RES     
    2147 1           -4.5590     7.5280     8.2960 1             1 RES     
    2148 1           -4.8930     7.3520     8.4580 1             1 RES     
    2149 1            7.4650    -3.3270     1.9150 1             1 RES     
    2150 1            7.2920    -2.8640     1.7660 1             1 RES     
    2151 1            6.8020    -2.8950     1.5500 1             1 RES     
    2152 1           -1.1890    -6.7130     8.1180 1             1 RES     
    2153 1           -1.5100    -6.4690     8.1890 1             1 RES     
    2154 1           -1.6890    -6.3850     7.8640 1             1 RES     
    2155 1            2.0370     5.5540    -8.8810 1             1 RES     
    2156 1            2.2930     5.7710    -8.4190 1             1 RES     
    2157 1            2.6330     5.4430    -8.1850 1             1 RES     
    2158 1            2.0410     3.2080    -7.7430 1             1 RES     
    2159 1            2.3720     3.1800    -8.0450 1             1 RES     
    2160 1            2.2820     3.3530    -8.5790 1             1 RES     
    2161 1            0.2390     0.0390    -9.4800 1             1 RES     
    2162 1            0.6440     0.3100    -9.6720 1             1 RES     
    2163 1            0.6820     0.6160    -9.4950 1             1 RES     
    2164 1          -10.0180     3.2600    11.9210 1             1 RES     
    2165 1           -9.7770     2.8760    11.7500 1             1 RES     
    2166 1           -9.4270     2.9740    11.6970 1             1 RES     
    2167 1            9.3650     0.8270   -12.3100 1             1 RES     
    2168 1            9.5130     0.9800   -12.7080 1             1 RES     
    2169 1            9.9460     0.8310   -12.8140 1             1 RES     
    2170 1            7.8520     4.4430     9.7240 1             1 RES     
    2171 1            7.7810     4.5750    10.2550 1             1 RES     
    2172 1            8.0760     4.4710    10.4820 1             1 RES     
    2173 1           -3.4300   -11.8610    -3.8900 1             1 RES     
    2174 1           -3.3660   -12.1760    -4.1280 1             1 RES     
    2175 1           -3.3300   -12.5330    -3.8800 1             1 RES     
    2176 1          -11.4330    -0.5250     1.5530 1             1 RES     
    2177 1          -11.7740    -0.7660     2.0440 1             1 RES     
    2178 1          -12.1740    -0.8540     1.9510 1             1 RES     
    2179 1            3.9940     2.7800    11.0000 1             1 RES     
    2180 1            3.8490     3.1260    11.0050 1             1 RES     
    2181 1            4.2170     3.5060    10.8860 1             1 RES     
    2182 1          -10.9460    10.9140     1.4320 1             1 RES     
    2183 1          -11.1680    11.0790     1.8440 1             1 RES     
    2184 1          -11.1190    10.8420     2.1880 1             1 RES     
    2185 1           -0.7720    -1.6930     0.5520 1             1 RES     
    2186 1           -0.5600    -1.7660     1.0150 1             1 RES     
    2187 1           -0.1390    -1.6540     1.0570 1             1 RES     
    2188 1            4.2390     7.5850    -7.6020 1             1 RES     
    2189 1            4.0320     7.8800    -7.4220 1             1 RES     
    2190 1            3.6880     7.7120    -7.1780 1             1 RES     
    2191 1            5.1400   -12.2110     8.5710 1             1 RES     
    2192 1            5.4160   -12.4070     8.3830 1             1 RES     
    2193 1            5.7410   -12.4820     8.5790 1             1 RES     
    2194 1          -10.4840    -1.7180     5.7590 1             1 RES     
    2195 1          -10.7970    -1.5610     6.0950 1             1 RES     
    2196 1          -11.1470    -1.8040     6.2260 1             1 RES     
    2197 1            2.9000    -4.4290    -9.9640 1             1 RES     
    2198 1            2.5560    -4.6990    -9.8200 1             1 RES     
    2199 1            2.2350    -4.4960    -9.7160 1             1 RES     
    2200 1           -5.2640     5.9980    -4.4990 1             1 RES     
    2201 1           -5.0210     6.2460    -4.9370 1             1 RES     
    2202 1           -5.2670     6.3210    -5.2070 1             1 RES     
    2203 1          -12.1460     3.6940    11.3810 1             1 RES     
    2204 1          -12.1290     4.1200    11.4040 1             1 RES     
    2205 1          -11.7280     4.3080    11.5660 1             1 RES     
    2206 1           -0.2160     8.1190     9.7800 1             1 RES     
    2207 1            0.1430     8.0600     9.7730 1             1 RES     
    2208 1            0.2380     7.8420    10.0140 1             1 RES     
    2209 1            9.4250     5.0420     6.2990 1             1 RES     
    2210 1            9.7240     4.5360     6.3040 1             1 RES     
    2211 1            9.4560     4.1120     6.0960 1             1 RES     
    2212 1          -11.4650     9.1420   -10.5200 1             1 RES     
    2213 1          -11.0860     9.1990   -10.2150 1             1 RES     
    2214 1          -11.0060     9.7520   -10.1420 1             1 RES     
    2215 1           -1.2190    10.2320    -2.3410 1             1 RES     
    2216 1           -1.2750     9.8110    -2.2230 1             1 RES     
    2217 1           -0.9700     9.6600    -1.8520 1             1 RES     
    2218 1           -2.0400     2.9800    -2.5310 1             1 RES     
    2219 1           -1.7430     2.9870    -2.7860 1             1 RES     
    2220 1           -1.3120     3.0440    -2.6200 1             1 RES     
    2221 1            8.3760    -2.4300   -10.0370 1             1 RES     
    2222 1            8.2890    -1.9780   -10.1060 1             1 RES     
    2223 1            8.4980    -1.8360   -10.4670 1             1 RES     
    2224 1          -12.3970   -11.5690    -6.1860 1             1 RES     
    2225 1          -12.1760   -11.8320    -6.1410 1             1 RES     
    2226 1          -12.2100   -12.1170    -6.5510 1             1 RES     
    2227 1            8.6050    11.9370    -1.8640 1             1 RES     
    2228 1            9.0620    12.1380    -1.6950 1             1 RES     
    2229 1            9.4240    11.7890    -1.6790 1             1 RES     
    2230 1            4.6400    10.3890   -10.0560 1             1 RES     
    2231 1            4.7350     9.9220   -10.0360 1             1 RES     
    2232 1            4.5580     9.6750   -10.2640 1             1 RES     
    2233 1            2.9600    -6.9840    -7.0710 1             1 RES     
    2234 1            2.6490    -6.5020    -7.0320 1             1 RES     
    2235 1            2.6750    -6.2860    -6.4810 1             1 RES     
    2236 1           -3.1900     5.8180    -6.6140 1             1 RES     
    2237 1           -3.2270     6.2840    -6.5940 1             1 RES     
    2238 1           -3.6940     6.4360    -6.6980 1             1 RES     
    2239 1           -1.6460    -0.7520     1.4900 1             1 RES     
    2240 1           -1.4880    -1.1430     1.4560 1             1 RES     
    2241 1           -1.1140    -1.2490     1.8020 1             1 RES     
    2242 1            7.8370    -9.3180    -8.7010 1             1 RES     
    2243 1            7.9630    -9.6910    -8.3980 1             1 RES     
    2244 1            8.1540    -9.9640    -8.5840 1             1 RES     
    2245 1            7.2880   -11.1840     0.5240 1             1 RES     
    2246 1            7.2390   -11.3690     0.1230 1             1 RES     
    2247 1            6.8990   -11.4490     0.0180 1             1 RES     
    2248 1           -0.1400     6.3490    -7.9860 1             1 RES     
    2249 1           -0.6490     6.2560    -8.2780 1             1 RES     
    2250 1           -0.9190     5.8200    -8.1370 1             1 RES     
    2251 1            9.2420    12.0160    -4.7400 1             1 RES     
    2252 1            9.1450    12.3990    -4.7610 1             1 RES     
    2253 1            8.8630    12.4340    -4.8580 1             1 RES     
    2254 1           10.7870    -2.9020    -9.5160 1             1 RES     
    2255 1           10.4040    -2.9770    -9.7980 1             1 RES     
    2256 1           10.4810    -2.9950   -10.1090 1             1 RES     
    2257 1            0.9570   -11.5360    11.2030 1             1 RES     
    2258 1            1.1820   -11.6030    10.9470 1             1 RES     
    2259 1            0.9740   -11.8770    10.6280 1             1 RES     
    2260 1           -8.1760     6.6330    -3.1880 1             1 RES     
    2261 1           -8.3910     6.4180    -3.4520 1             1 RES     
    2262 1           -8.3290     6.5310    -4.0470 1             1 RES     
    2263 1           10.9860     2.8930   -10.9530 1             1 RES     
    2264 1           11.2500     2.6910   -10.7240 1             1 RES     
    2265 1           11.7580     2.6130   -10.9430 1             1 RES     
    2266 1           -4.9520     1.2240    -3.3910 1             1 RES     
    2267 1           -4.7080     1.2060    -3.1720 1             1 RES     
    2268 1           -4.8000     1.4520    -2.8360 1             1 RES     
    2269 1           -2.4150     0.7040   -10.2580 1             1 RES     
    2270 1           -2.6810     0.7890   -10.6350 1             1 RES     
    2271 1           -2.9630     1.2260   -10.6120 1             1 RES     
    2272 1            9.6600    -1.6050     1.7600 1             1 RES     
    2273 1            9.8360    -1.9540     1.5980 1             1 RES     
    2274 1           10.1200    -2.0790     1.8560 1             1 RES     
    2275 1          -10.5110    -2.1710    -0.6550 1             1 RES     
    2276 1          -10.8460    -1.8520    -0.7580 1             1 RES     
    2277 1          -10.9140    -1.7570    -1.2590 1             1 RES     
    2278 1           -9.6830     6.6730    -9.9390 1             1 RES     
    2279 1           -9.1750     6.7390    -9.6420 1             1 RES     
    2280 1           -8.9610     7.1830    -9.7090 1             1 RES     
    2281 1            7.9520    -8.7460    -3.2640 1             1 RES     
    2282 1            8.2500    -8.6920    -3.6540 1             1 RES     
    2283 1            7.9980    -8.6710    -4.0620 1             1 RES     
    2284 1            2.0970    -0.4230     4.9820 1             1 RES     
    2285 1            1.8630    -0.6380     5.2170 1             1 RES     
    2286 1            1.4230    -0.4070     5.3120 1             1 RES     
    2287 1            5.0890    -8.7100   -11.3090 1             1 RES     
    2288 1            4.9900    -8.9770   -11.0370 1             1 RES     
    2289 1            4.9350    -9.2980   -11.1540 1             1 RES     
    2290 1           -2.8580     0.8890     4.4560 1             1 RES     
    2291 1           -2.9780     1.2540     4.6540 1             1 RES     
    2292 1           -3.4590     1.2620     4.9230 1             1 RES     
    2293 1           10.9780     5.0550     9.0590 1             1 RES     
    2294 1           11.4910     5.2380     8.8460 1             1 RES     
    2295 1           11.6700     5.6010     9.1210 1             1 RES     
    2296 1            7.2670     0.5980    11.2240 1             1 RES     
    2297 1            6.8780     0.8360    11.3230 1             1 RES     
    2298 1            6.9170     1.2140    11.2730 1             1 RES     
    2299 1            4.3960    -4.1890     5.3690 1             1 RES     
    2300 1            4.6150    -4.1170     4.9880 1             1 RES     
    2301 1            4.4360    -4.3900     4.6630 1             1 RES     
    2302 1           -9.0540     9.3140    12.2790 1             1 RES     
    2303 1           -8.8460     9.3570    12.4920 1             1 RES     
    2304 1           -8.8300     8.9810    12.7450 1             1 RES     
    2305 1          -10.0840     6.1630   -11.4290 1             1 RES     
    2306 1          -10.3760     5.8890   -11.2890 1             1 RES     
    2307 1          -10.2410     5.4780   -11.1690 1             1 RES     
    2308 1            3.0190     1.8220    -7.1580 1             1 RES     
    2309 1            2.5450     1.9400    -6.9360 1             1 RES     
    2310 1            2.4450     1.7600    -6.6000 1             1 RES     
    2311 1            3.5010    -3.9410     1.4700 1             1 RES     
    2312 1            3.3410    -4.1550     1.1230 1             1 RES     
    2313 1            2.8640    -4.1030     0.9730 1             1 RES     
    2314 1            5.2610     6.5740     0.8110 1             1 RES     
    2315 1            5.2110     7.0130     0.8680 1             1 RES     
    2316 1            4.9120     7.1560     1.3480 1             1 RES     
    2317 1           -5.3050    12.0030    -1.6670 1             1 RES     
    2318 1           -5.7820    12.0440    -1.8330 1             1 RES     
    2319 1           -5.8620    11.9200    -2.2910 1             1 RES     
    2320 1            2.1070     7.9360    -8.3030 1             1 RES     
    2321 1            2.1390     7.8440    -8.6460 1             1 RES     
    2322 1            2.3870     7.4600    -8.7360 1             1 RES     
    2323 1            2.1190    -1.5830     9.5060 1             1 RES     
    2324 1            1.8560    -1.8800     9.9230 1             1 RES     
    2325 1            1.6300    -1.6060    10.2880 1             1 RES     
    2326 1           -3.0740    -0.7350    -1.0720 1             1 RES     
    2327 1           -3.4150    -0.6860    -1.4880 1             1 RES     
    2328 1           -3.6230    -0.4900    -1.4560 1             1 RES     
    2329 1          -12.2070    -6.5370    -7.8330 1             1 RES     
    2330 1          -11.9790    -6.8890    -7.7290 1             1 RES     
    2331 1          -12.0730    -7.3580    -7.9320 1             1 RES     
    2332 1            7.1690     2.6210     4.6550 1             1 RES     
    2333 1            7.0370     2.2300     4.8140 1             1 RES     
    2334 1            6.7560     2.3060     5.1980 1             1 RES     
    2335 1            9.5450     1.9180    10.4650 1             1 RES     
    2336 1            9.3410     2.3790    10.7220 1             1 RES     
    2337 1            9.7470     2.7800    10.8380 1             1 RES     
    2338 1           -6.9050    -8.1050     2.2390 1             1 RES     
    2339 1           -6.8910    -8.0310     1.7930 1             1 RES     
    2340 1           -7.2190    -8.3610     1.5550 1             1 RES     
    2341 1          -11.6560     7.3000   -11.6960 1             1 RES     
    2342 1          -11.6570     7.5620   -11.2510 1             1 RES     
    2343 1          -11.3100     7.7790   -11.1870 1             1 RES     
    2344 1           11.3880     9.7680    -1.3990 1             1 RES     
    2345 1           11.2640     9.8830    -1.7630 1             1 RES     
    2346 1           11.5990    10.1270    -1.9880 1             1 RES     
    2347 1            4.4120    11.0910    11.9680 1             1 RES     
    2348 1            4.5480    11.1750    12.3030 1             1 RES     
    2349 1            4.5330    10.8860    12.5420 1             1 RES     
    2350 1            5.0630   -12.2360   -11.4960 1             1 RES     
    2351 1            5.3420   -12.2310   -11.1310 1             1 RES     
    2352 1            5.8250   -12.1470   -11.2590 1             1 RES     
    2353 1            5.2040     5.1650    -8.9390 1             1 RES     
    2354 1            4.9730     4.8250    -8.6660 1             1 RES     
    2355 1            5.0760     4.4130    -8.7710 1             1 RES     
    2356 1          -10.3440   -12.0580   -10.9410 1             1 RES     
    2357 1           -9.9430   -11.8900   -10.6910 1             1 RES     
    2358 1           -9.8770   -11.3830   -10.7020 1             1 RES     
    2359 1           -3.7760     4.4570    -4.0830 1             1 RES     
    2360 1           -3.7140     4.7510    -4.2240 1             1 RES     
    2361 1           -3.8120     4.7880    -4.6990 1             1 RES     
    2362 1           10.2890    10.3850    -3.7340 1             1 RES     
    2363 1           10.1930    10.8010    -3.8260 1             1 RES     
    2364 1           10.6080    11.1880    -3.6850 1             1 RES     
    2365 1           -5.1230    -8.7680    10.6710 1             1 RES     
    2366 1           -4.7010    -8.8530    10.8770 1             1 RES     
    2367 1           -4.5930    -8.6040    11.1410 1             1 RES     
    2368 1            2.3040   -12.1080     7.0020 1             1 RES     
    2369 1            2.0650   -12.2290     7.4270 1             1 RES     
    2370 1            2.1310   -11.9240     7.8620 1             1 RES     
    2371 1            6.0560    -0.3950    -0.9870 1             1 RES     
    2372 1            6.0440    -0.6240    -1.2570 1             1 RES     
    2373 1            5.6520    -0.5820    -1.4970 1             1 RES     
    2374 1          -10.3610    -6.4010    -2.9540 1             1 RES     
    2375 1          -10.5090    -6.4780    -2.6700 1             1 RES     
    2376 1          -10.3120    -6.8840    -2.4740 1             1 RES     
    2377 1           -5.5560     7.0930    -8.5180 1             1 RES     
    2378 1           -5.9820     7.0030    -8.5310 1             1 RES     
    2379 1           -6.1140     6.8140    -8.1530 1             1 RES     
    2380 1            5.1030    11.7110    -3.7460 1             1 RES     
    2381 1            5.5160    11.5830    -3.8800 1             1 RES     
    2382 1            5.6820    11.7680    -4.3480 1             1 RES     
    2383 1            9.5090    12.4820    -7.3150 1             1 RES     
    2384 1            9.2130    12.4800    -7.0070 1             1 RES     
    2385 1            8.9260    12.8560    -6.9750 1             1 RES     
    2386 1            7.5530     2.4470     1.6560 1             1 RES     
    2387 1            7.9000     2.5350     1.3690 1             1 RES     
    2388 1            7.8350     3.0460     1.1090 1             1 RES     
    2389 1            9.2770     4.2000    10.6180 1             1 RES     
    2390 1            9.6570     4.1260    10.5690 1             1 RES     
    2391 1            9.8690     3.9700    10.8810 1             1 RES     
    2392 1           -7.0990    -4.9660    -0.6400 1             1 RES     
    2393 1           -6.7140    -4.7200    -0.6510 1             1 RES     
    2394 1           -6.3740    -4.9660    -0.7080 1             1 RES     
    2395 1            5.6550    -0.9750    -9.0180 1             1 RES     
    2396 1            5.1650    -1.2320    -8.7210 1             1 RES     
    2397 1            4.6550    -1.1410    -9.0150 1             1 RES     
    2398 1           -3.1550    11.1690     9.6250 1             1 RES     
    2399 1           -3.0490    10.9240    10.0470 1             1 RES     
    2400 1           -2.7330    10.6830     9.9940 1             1 RES     
    2401 1           -0.0290     5.0180    -7.1400 1             1 RES     
    2402 1           -0.0400     4.6030    -6.7940 1             1 RES     
    2403 1            0.2060     4.6520    -6.4480 1             1 RES     
    2404 1           -3.5470    -1.4500    11.1950 1             1 RES     
    2405 1           -3.7920    -1.7810    11.2580 1             1 RES     
    2406 1           -3.5880    -2.1700    11.6470 1             1 RES     
    2407 1            7.9300    -5.2720     2.0420 1             1 RES     
    2408 1            8.2350    -4.8610     2.0940 1             1 RES     
    2409 1            8.0380    -4.4830     2.1120 1             1 RES     
    2410 1            6.2050    -9.8350   -11.0960 1             1 RES     
    2411 1            6.3420    -9.6240   -11.2940 1             1 RES     
    2412 1            6.8470    -9.7810   -11.4320 1             1 RES     
    2413 1          -11.8840    -7.6500    -5.8640 1             1 RES     
    2414 1          -12.0850    -7.9420    -5.6110 1             1 RES     
    2415 1          -12.4760    -7.7940    -5.4730 1             1 RES     
    2416 1           -6.3130     1.1800     3.3770 1             1 RES     
    2417 1           -5.9660     0.8870     3.2560 1             1 RES     
    2418 1           -6.1250     0.3890     3.3930 1             1 RES     
    2419 1           10.1280     0.8510   -10.7710 1             1 RES     
    2420 1           10.1750     0.5410   -10.5120 1             1 RES     
    2421 1           10.2370     0.6390   -10.0330 1             1 RES     
    2422 1           -5.0620    -0.2790     4.4850 1             1 RES     
    2423 1           -5.0950    -0.1500     3.9990 1             1 RES     
    2424 1           -5.3090     0.2640     3.9130 1             1 RES     
    2425 1            6.0460    -6.1610    11.7450 1             1 RES     
    2426 1            6.2930    -5.8810    11.7520 1             1 RES     
    2427 1            6.1400    -5.4520    11.8920 1             1 RES     
    2428 1           -6.6660    -9.1100    11.0720 1             1 RES     
    2429 1           -6.9190    -8.8470    11.3600 1             1 RES     
    2430 1           -7.0260    -8.5120    11.1820 1             1 RES     
    2431 1            7.8880     7.1690    -3.2980 1             1 RES     
    2432 1            8.4280     7.2350    -3.1730 1             1 RES     
    2433 1            8.5910     7.8280    -3.1900 1             1 RES     
    2434 1           -1.9740     0.2860     3.4030 1             1 RES     
    2435 1           -1.8610     0.6010     3.0700 1             1 RES     
    2436 1           -1.8120     1.0050     3.1620 1             1 RES     
    2437 1           10.7840    -3.4450    -5.0530 1             1 RES     
    2438 1           11.0080    -3.2500    -5.3070 1             1 RES     
    2439 1           11.3690    -2.9770    -5.1370 1             1 RES     
    2440 1            5.0280     7.6790    -1.7050 1             1 RES     
    2441 1            5.3340     7.6290    -2.1260 1             1 RES     
    2442 1            5.6820     7.4040    -2.0290 1             1 RES     
    2443 1           -2.2900     5.6090    -5.1460 1             1 RES     
    2444 1           -2.4660     5.2560    -5.3940 1             1 RES     
    2445 1           -2.9650     5.2750    -5.4580 1             1 RES     
    2446 1            0.9840    -8.4760    12.1080 1             1 RES     
    2447 1            1.2660    -8.1830    12.4220 1             1 RES     
    2448 1            1.6530    -8.4270    12.5850 1             1 RES     
    2449 1            9.1630    -6.0470    11.8600 1             1 RES     
    2450 1            9.4220    -6.2390    12.1150 1             1 RES     
    2451 1            9.9340    -5.9190    12.1810 1             1 RES     
    2452 1           -9.5790    -0.0090    -7.6970 1             1 RES     
    2453 1           -9.2910     0.1080    -7.9990 1             1 RES     
    2454 1           -9.3090     0.6640    -8.1340 1             1 RES     
    2455 1          -10.2370    11.5670     2.8820 1             1 RES     
    2456 1          -10.0550    11.9070     3.1480 1             1 RES     
    2457 1          -10.2730    11.9650     3.5490 1             1 RES     
    2458 1           -8.0470     2.4140    -2.7620 1             1 RES     
    2459 1           -8.0410     2.1670    -3.1220 1             1 RES     
    2460 1           -7.7970     2.2810    -3.4080 1             1 RES     
    2461 1           -7.6400    -7.1430     7.3130 1             1 RES     
    2462 1           -7.6090    -6.8710     7.7620 1             1 RES     
    2463 1           -7.4550    -6.3640     7.6190 1             1 RES     
    2464 1            0.3620     3.5050    10.5690 1             1 RES     
    2465 1           -0.0730     3.6770    10.6920 1             1 RES     
    2466 1           -0.1300     4.1450    10.5540 1             1 RES     
    2467 1          -11.2970     6.7660    -8.7660 1             1 RES     
    2468 1          -11.5990     7.0550    -8.2500 1             1 RES     
    2469 1          -11.3930     7.3120    -8.0770 1             1 RES     
    2470 1            1.6060    -0.9900    11.7640 1             1 RES     
    2471 1            1.0970    -1.0210    11.7310 1             1 RES     
    2472 1            0.8800    -0.6340    11.6420 1             1 RES     
    2473 1            5.4730    10.3950   -11.7150 1             1 RES     
    2474 1            5.7870    10.2820   -11.8370 1             1 RES     
    2475 1            6.1320    10.5000   -11.7750 1             1 RES     
    2476 1          -11.2810     5.9490    10.6030 1             1 RES     
    2477 1          -10.8440     5.8620    10.1320 1             1 RES     
    2478 1          -10.3450     6.0690    10.2530 1             1 RES     
    2479 1           -6.6580    -1.4040     8.0880 1             1 RES     
    2480 1           -7.0720    -1.4720     8.4050 1             1 RES     
    2481 1           -7.0020    -1.7670     8.7620 1             1 RES     
    2482 1            0.0460     0.4210     3.6580 1             1 RES     
    2483 1           -0.2040     0.5860     4.0740 1             1 RES     
    2484 1           -0.1970     1.0380     4.1230 1             1 RES     
    2485 1            0.0640    -6.0080    -9.5970 1             1 RES     
    2486 1            0.1920    -5.5330    -9.9830 1             1 RES     
    2487 1           -0.1510    -5.4610   -10.3100 1             1 RES     
    2488 1            6.4270    -3.5330    -6.5440 1             1 RES     
    2489 1            6.1100    -3.3200    -6.5570 1             1 RES     
    2490 1            6.1350    -3.0020    -6.8690 1             1 RES     
    2491 1           -6.8200    -4.1200     2.5460 1             1 RES     
    2492 1           -6.8690    -4.4870     2.6700 1             1 RES     
    2493 1           -6.9140    -4.7760     2.3660 1             1 RES     
    2494 1          -11.2860   -12.4830     1.1150 1             1 RES     
    2495 1          -11.5620   -12.4030     1.0560 1             1 RES     
    2496 1          -11.6790   -12.3070     0.4870 1             1 RES     
    2497 1           11.0850     4.2340   -12.1610 1             1 RES     
    2498 1           10.7460     3.8430   -12.1300 1             1 RES     
    2499 1           10.9340     3.4440   -12.2580 1             1 RES     
    2500 1            0.3290     1.4790     7.8890 1             1 RES     
    2501 1            0.6790     1.3300     8.0220 1             1 RES     
    2502 1            0.8280     1.5250     8.3810 1             1 RES     
    2503 1           -8.7300    -3.8810   -10.7530 1             1 RES     
    2504 1           -8.5140    -3.8450   -10.2520 1             1 RES     
    2505 1           -8.0660    -3.5900   -10.2140 1             1 RES     
    2506 1           10.5350   -11.6610    -1.1500 1             1 RES     
    2507 1           10.2520   -11.5550    -0.7380 1             1 RES     
    2508 1            9.9280   -11.2550    -0.8150 1             1 RES     
    2509 1            8.2600    12.4380    -0.4860 1             1 RES     
    2510 1            7.8810    12.7710    -0.7730 1             1 RES     
    2511 1            7.3500    12.6460    -0.6000 1             1 RES     
    2512 1          -12.3950    -5.2610   -12.2520 1             1 RES     
    2513 1          -12.2760    -5.3160   -11.8320 1             1 RES     
    2514 1          -12.6560    -5.5010   -11.5420 1             1 RES     
    2515 1           -5.9840     8.1450     4.8680 1             1 RES     
    2516 1           -5.7480     8.3230     5.0040 1             1 RES     
    2517 1           -5.9090     8.4100     5.3220 1             1 RES     
    2518 1            1.8410     6.9990    -2.7590 1             1 RES     
    2519 1            1.4800     7.2910    -2.5290 1             1 RES     
    2520 1            1.6420     7.6150    -2.0430 1             1 RES     
    2521 1            7.8390     8.9990    -7.4500 1             1 RES     
    2522 1            7.8540     9.1620    -7.9440 1             1 RES     
    2523 1            8.0080     8.8060    -8.2960 1             1 RES     
    2524 1            0.9200   -10.0430   -11.0680 1             1 RES     
    2525 1            1.0990    -9.7210   -11.3080 1             1 RES     
    2526 1            0.8770    -9.4350   -11.4380 1             1 RES     
    2527 1           -5.5290    -4.5880    -4.9830 1             1 RES     
    2528 1           -5.7730    -4.2610    -4.7560 1             1 RES     
    2529 1           -6.0060    -3.9500    -5.0360 1             1 RES     
    2530 1           -6.4760     8.7070    -3.3610 1             1 RES     
    2531 1           -6.2840     8.8830    -3.6270 1             1 RES     
    2532 1           -6.1440     9.2340    -3.4980 1             1 RES     
    2533 1            3.8120     9.0720    -2.3750 1             1 RES     
    2534 1            4.0350     8.7770    -2.4560 1             1 RES     
    2535 1            3.8760     8.5640    -2.8320 1             1 RES     
    2536 1            6.0210    -2.6660    -8.5850 1             1 RES     
    2537 1            6.2260    -2.3250    -8.5880 1             1 RES     
    2538 1            6.0630    -1.9380    -8.3770 1             1 RES     
    2539 1           10.5810    -3.8340     2.4040 1             1 RES     
    2540 1           10.7850    -3.3990     2.1900 1             1 RES     
    2541 1           10.6030    -3.2530     1.9380 1             1 RES     
    2542 1          -11.8300     2.9270    -2.5610 1             1 RES     
    2543 1          -12.1030     2.5860    -2.3880 1             1 RES     
    2544 1          -11.8630     2.2460    -1.9000 1             1 RES     
    2545 1           -4.3940   -10.1180    -2.8520 1             1 RES     
    2546 1           -3.9950   -10.1030    -3.2230 1             1 RES     
    2547 1           -3.9550   -10.5650    -3.4700 1             1 RES     
    2548 1          -10.8330    -0.8450     2.6410 1             1 RES     
    2549 1          -10.4110    -1.0020     2.7260 1             1 RES     
    2550 1          -10.3150    -1.5700     2.5770 1             1 RES     
    2551 1           -4.2890     7.9980     4.5080 1             1 RES     
    2552 1           -3.8900     8.2430     4.4730 1             1 RES     
    2553 1           -3.9180     8.6850     4.2020 1             1 RES     
    2554 1            7.8510     4.8790     7.8030 1             1 RES     
    2555 1            8.2770     4.8430     7.9370 1             1 RES     
    2556 1            8.3360     4.5740     8.0270 1             1 RES     
    2557 1           -1.7630    -6.1090    -2.6280 1             1 RES     
    2558 1           -1.5380    -6.4420    -2.4370 1             1 RES     
    2559 1           -1.6830    -6.8380    -2.5300 1             1 RES     
    2560 1           -9.1200     3.7830   -11.7890 1             1 RES     
    2561 1           -9.3620     3.4500   -12.0370 1             1 RES     
    2562 1           -9.1010     3.2600   -12.3430 1             1 RES     
    2563 1           -2.0660    -1.4720    -7.3140 1             1 RES     
    2564 1           -2.2620    -1.9120    -7.3730 1             1 RES     
    2565 1           -2.5450    -2.0800    -6.9680 1             1 RES     
    2566 1            8.3670    -0.3510     4.8500 1             1 RES     
    2567 1            8.1430    -0.2700     5.0840 1             1 RES     
    2568 1            7.7410    -0.5900     5.0180 1             1 RES     
    2569 1           -9.0880    -1.0950     6.6910 1             1 RES     
    2570 1           -9.4400    -1.2090     6.5940 1             1 RES     
    2571 1           -9.6430    -0.9880     6.5850 1             1 RES     
    2572 1          -12.2830    -7.4150    -3.9790 1             1 RES     
    2573 1          -12.5010    -7.1770    -3.6960 1             1 RES     
    2574 1          -12.8150    -7.4180    -3.5120 1             1 RES     
    2575 1            3.4570    -8.9860     8.6780 1             1 RES     
    2576 1            3.5390    -9.3630     8.3120 1             1 RES     
    2577 1            3.8110    -9.2390     7.9290 1             1 RES     
    2578 1           -5.2420     8.0840     9.1750 1             1 RES     
    2579 1           -5.5890     8.3980     9.3520 1             1 RES     
    2580 1           -5.6740     8.7720     9.1010 1             1 RES     
    2581 1          -11.3660     2.1740     4.5770 1             1 RES     
    2582 1          -11.2920     2.3430     4.8830 1             1 RES     
    2583 1          -11.5690     2.7090     4.9630 1             1 RES     
    2584 1           -6.7750   -12.5760    -5.8030 1             1 RES     
    2585 1           -6.8070   -12.7740    -6.2150 1             1 RES     
    2586 1           -7.1010   -12.8940    -6.2590 1             1 RES     
    2587 1           -3.9070     2.6210     2.5100 1             1 RES     
    2588 1           -3.8030     2.5100     3.0300 1             1 RES     
    2589 1           -3.4880     2.5220     3.0570 1             1 RES     
    2590 1            4.8570     8.1820   -10.7140 1             1 RES     
    2591 1            4.6030     7.9920   -10.4490 1             1 RES     
    2592 1            4.3410     8.3090   -10.1410 1             1 RES     
    2593 1           -7.5860     6.4750     9.0420 1             1 RES     
    2594 1           -7.7780     6.7500     9.0800 1             1 RES     
    2595 1           -7.5120     7.1270     9.0720 1             1 RES     
    2596 1           -6.7620     5.0750    -2.2000 1             1 RES     
    2597 1           -7.1250     5.3190    -2.2990 1             1 RES     
    2598 1           -7.3770     5.3210    -2.0370 1             1 RES     
    2599 1           -3.2810     2.8060     4.6310 1             1 RES     
    2600 1           -3.1900     2.8210     5.0560 1             1 RES     
    2601 1           -3.0860     3.2010     5.2140 1             1 RES     
    2602 1           -7.8160   -10.3450    -5.2680 1             1 RES     
    2603 1           -8.0600   -10.5740    -5.2160 1             1 RES     
    2604 1           -8.4080   -10.5400    -5.5100 1             1 RES     
    2605 1           -2.7340     2.2290     3.7830 1             1 RES     
    2606 1           -2.4710     2.4890     3.6670 1             1 RES     
    2607 1           -2.6600     2.8980     3.5350 1             1 RES     
    2608 1           -9.7430     2.4070    -6.0050 1             1 RES     
    2609 1           -9.7040     2.2580    -5.5770 1             1 RES     
    2610 1           -9.9440     1.9270    -5.5500 1             1 RES     
    2611 1          -10.4340     7.4140   -12.2390 1             1 RES     
    2612 1          -10.4520     8.0220   -12.0090 1             1 RES     
    2613 1          -10.2700     8.0830   -11.4660 1             1 RES     
    2614 1           11.5140     0.6580   -10.2380 1             1 RES     
    2615 1           11.7900     0.8960   -10.5120 1             1 RES     
    2616 1           11.8680     1.3540   -10.4310 1             1 RES     
    2617 1          -10.9990    -9.4480    -6.1050 1             1 RES     
    2618 1          -10.9400    -9.4820    -5.7320 1             1 RES     
    2619 1          -10.5770    -9.3250    -5.6150 1             1 RES     
    2620 1           -7.5240    10.2630     9.4250 1             1 RES     
    2621 1           -7.9620    10.1250     9.3830 1             1 RES     
    2622 1           -8.2290    10.3980     9.4920 1             1 RES     
    2623 1          -11.6960   -11.3830     4.8600 1             1 RES     
    2624 1          -11.4540   -11.2430     4.5570 1             1 RES     
    2625 1          -10.9280   -11.1380     4.7340 1             1 RES     
    2626 1           -0.5530     2.7090    -0.2050 1             1 RES     
    2627 1           -0.2280     2.6370    -0.0850 1             1 RES     
    2628 1           -0.2030     2.7880     0.4080 1             1 RES     
    2629 1           -4.1130     8.0320    12.4740 1             1 RES     
    2630 1           -3.7390     7.7640    12.1640 1             1 RES     
    2631 1           -3.7700     7.8540    11.7190 1             1 RES     
    2632 1            1.9370     6.4370    12.4960 1             1 RES     
    2633 1            2.2080     6.3190    12.8200 1             1 RES     
    2634 1            2.0090     6.3760    13.1250 1             1 RES     
    2635 1           -4.8490    -3.8890   -11.1980 1             1 RES     
    2636 1           -5.2490    -3.8720   -11.3210 1             1 RES     
    2637 1           -5.3080    -3.6220   -11.7310 1             1 RES     
    2638 1           -2.2920     2.9210    -4.6000 1             1 RES     
    2639 1           -2.2000     2.6020    -4.5120 1             1 RES     
    2640 1           -1.9570     2.5330    -3.9660 1             1 RES     
    2641 1            4.7270     2.1350     0.1560 1             1 RES     
    2642 1            4.2480     2.3900     0.3100 1             1 RES     
    2643 1            4.0160     2.1850     0.4960 1             1 RES     
    2644 1            2.8140    -8.9740    12.2740 1             1 RES     
    2645 1            2.9360    -9.4600    12.3900 1             1 RES     
    2646 1            3.1930    -9.6230    12.1080 1             1 RES     
    2647 1           -5.0850     2.2750     6.1610 1             1 RES     
    2648 1           -4.6820     2.0890     6.2210 1             1 RES     
    2649 1           -4.3680     2.2640     6.0470 1             1 RES     
    2650 1            6.1310    -0.6840     2.1030 1             1 RES     
    2651 1            6.3780    -1.0690     2.3570 1             1 RES     
    2652 1            6.6650    -0.8640     2.8210 1             1 RES     
    2653 1           -2.9520     1.1810     9.9910 1             1 RES     
    2654 1           -3.4280     1.0440     9.5030 1             1 RES     
    2655 1           -3.8330     1.1870     9.6800 1             1 RES     
    2656 1           -8.5830     4.7720     5.5880 1             1 RES     
    2657 1           -8.6800     5.1190     5.9780 1             1 RES     
    2658 1           -8.2230     5.2130     6.3330 1             1 RES     
    2659 1           11.8540     8.7790    -1.7520 1             1 RES     
    2660 1           11.9490     8.6650    -1.1130 1             1 RES     
    2661 1           11.7070     8.2440    -0.8890 1             1 RES     
    2662 1           -2.1240     0.6460     1.7610 1             1 RES     
    2663 1           -2.5730     0.6300     1.5020 1             1 RES     
    2664 1           -2.5810     0.3450     1.0870 1             1 RES     
    2665 1            9.0860     4.3870     9.0020 1             1 RES     
    2666 1            8.8900     4.5210     9.4230 1             1 RES     
    2667 1            9.0840     4.9160     9.6160 1             1 RES     
    2668 1           10.6000     7.0070     0.6930 1             1 RES     
    2669 1           10.3060     7.0670     0.4320 1             1 RES     
    2670 1            9.9210     6.8600     0.5140 1             1 RES     
    2671 1          -11.4400     5.0280   -10.7420 1             1 RES     
    2672 1          -11.7490     5.0860   -11.2160 1             1 RES     
    2673 1          -11.5380     5.3750   -11.5640 1             1 RES     
    2674 1            6.6230     1.6550   -10.6750 1             1 RES     
    2675 1            6.5910     1.2420   -10.6840 1             1 RES     
    2676 1            6.5750     1.0690   -10.3650 1             1 RES     
    2677 1           -8.7710    -9.5740     1.5780 1             1 RES     
    2678 1           -8.4210    -9.5400     1.2050 1             1 RES     
    2679 1           -8.4210    -9.9340     0.8640 1             1 RES     
    2680 1            7.8260    12.5580    -2.9240 1             1 RES     
    2681 1            7.7040    12.9130    -3.1090 1             1 RES     
    2682 1            8.0790    13.2130    -3.1010 1             1 RES     
    2683 1           11.7740    11.7110    12.5740 1             1 RES     
    2684 1           11.6140    11.3260    12.2540 1             1 RES     
    2685 1           11.4230    10.7190    12.5700 1             1 RES     
    2686 1            4.4750    -4.1860   -10.6120 1             1 RES     
    2687 1            4.4250    -4.2750   -10.1870 1             1 RES     
    2688 1            4.0690    -4.0780    -9.9570 1             1 RES     
    2689 1           -8.0680    10.0680    11.0750 1             1 RES     
    2690 1           -8.0240    10.3970    10.9490 1             1 RES     
    2691 1           -8.3250    10.6940    11.0270 1             1 RES     
    2692 1           10.3050    -2.9950    -1.4850 1             1 RES     
    2693 1           10.6840    -3.2080    -1.3280 1             1 RES     
    2694 1           11.0600    -3.2830    -1.5750 1             1 RES     
    2695 1           -8.6580     1.9900   -11.5240 1             1 RES     
    2696 1           -8.5870     1.6660   -11.3360 1             1 RES     
    2697 1           -9.0250     1.3760   -11.2410 1             1 RES     
    2698 1            6.9630     8.6100     2.7520 1             1 RES     
    2699 1            6.9960     8.5250     3.1070 1             1 RES     
    2700 1            7.2150     8.6510     3.2100 1             1 RES     
    2701 1            0.7750    -9.7890    11.9260 1             1 RES     
    2702 1            1.0580   -10.1300    12.1300 1             1 RES     
    2703 1            0.9920   -10.7050    12.0090 1             1 RES     
    2704 1            3.0340    -4.8880     4.9060 1             1 RES     
    2705 1            3.3610    -5.1790     4.7190 1             1 RES     
    2706 1            3.3260    -5.6410     4.9140 1             1 RES     
    2707 1           -7.0020     1.8650     0.1050 1             1 RES     
    2708 1           -6.6890     2.1110     0.2440 1             1 RES     
    2709 1           -6.2980     2.2330    -0.1510 1             1 RES     
    2710 1            1.7330     1.3360   -11.2260 1             1 RES     
    2711 1            1.2450     1.4010   -11.0610 1             1 RES     
    2712 1            1.0060     1.6020   -11.3820 1             1 RES     
    2713 1           10.7480     1.9010    12.1640 1             1 RES     
    2714 1           10.2400     1.9050    12.0590 1             1 RES     
    2715 1            9.9260     2.0360    12.5810 1             1 RES     
    2716 1           -1.4690    -7.8310    12.2770 1             1 RES     
    2717 1           -1.5580    -7.4900    12.0150 1             1 RES     
    2718 1           -1.7810    -7.6940    11.5330 1             1 RES     
    2719 1           -6.0320    -9.5660    10.3290 1             1 RES     
    2720 1           -6.0360    -9.0480     9.9330 1             1 RES     
    2721 1           -5.9890    -8.7670    10.0980 1             1 RES     
    2722 1           -0.3700     2.5540    -1.8390 1             1 RES     
    2723 1           -0.5720     2.4430    -1.4790 1             1 RES     
    2724 1           -0.7010     2.6760    -1.3490 1             1 RES     
    2725 1            8.1480    -8.8440    11.9250 1             1 RES     
    2726 1            8.4280    -8.5820    12.1050 1             1 RES     
    2727 1            8.7680    -8.3320    11.7560 1             1 RES     
    2728 1           -1.3760    -0.2440    -2.0250 1             1 RES     
    2729 1           -1.5790    -0.6340    -1.8930 1             1 RES     
    2730 1           -1.3850    -0.9200    -1.9060 1             1 RES     
    2731 1           12.5010    -7.4830     6.9110 1             1 RES     
    2732 1           12.7530    -7.7770     7.0210 1             1 RES     
    2733 1           12.5810    -8.1570     6.9180 1             1 RES     
    2734 1            1.5250     3.1520     9.5540 1             1 RES     
    2735 1            1.1160     3.1350     9.4150 1             1 RES     
    2736 1            0.8740     3.2660     9.6680 1             1 RES     
    2737 1          -11.0550    -5.3140    -8.5800 1             1 RES     
    2738 1          -10.9740    -5.6020    -8.8500 1             1 RES     
    2739 1          -11.0120    -6.0130    -8.6760 1             1 RES     
    2740 1            0.6190     7.6800     3.7120 1             1 RES     
    2741 1            1.0270     7.3300     3.5130 1             1 RES     
    2742 1            1.0450     7.2890     2.8990 1             1 RES     
    2743 1            3.1550    10.2860    10.8450 1             1 RES     
    2744 1            3.0840     9.9860    11.0940 1             1 RES     
    2745 1            3.2650     9.5010    10.9610 1             1 RES     
    2746 1            0.6130    -5.7480    -1.6470 1             1 RES     
    2747 1            0.8150    -5.3970    -1.2750 1             1 RES     
    2748 1            0.5470    -5.3260    -0.9490 1             1 RES     
    2749 1            2.4930    -3.7620    -2.8500 1             1 RES     
    2750 1            2.7480    -4.1620    -2.8790 1             1 RES     
    2751 1            2.9710    -4.2680    -2.3750 1             1 RES     
    2752 1            7.1900    -8.8180   -12.1170 1             1 RES     
    2753 1            7.1380    -8.6140   -12.4240 1             1 RES     
    2754 1            7.0400    -8.8990   -12.8610 1             1 RES     
    2755 1            6.5840     5.1170   -10.4920 1             1 RES     
    2756 1            6.8860     5.1030   -10.5240 1             1 RES     
    2757 1            6.9490     4.8700   -10.8360 1             1 RES     
    2758 1           11.6450    -3.5180     5.7380 1             1 RES     
    2759 1           11.4340    -4.0880     5.8390 1             1 RES     
    2760 1           10.9250    -4.1880     5.6190 1             1 RES     
    2761 1            5.1090     0.5270    -1.1290 1             1 RES     
    2762 1            5.2850     0.3200    -0.8920 1             1 RES     
    2763 1            4.9710    -0.0970    -0.7100 1             1 RES     
    2764 1           -5.5990    -1.1230    -2.7860 1             1 RES     
    2765 1           -5.5380    -0.7820    -3.1460 1             1 RES     
    2766 1           -5.7660    -0.8240    -3.5510 1             1 RES     
    2767 1           -8.6290    -8.6630    -9.6370 1             1 RES     
    2768 1           -8.6050    -9.1620    -9.4930 1             1 RES     
    2769 1           -8.9810    -9.4300    -9.7390 1             1 RES     
    2770 1            9.8220     6.1120     5.7580 1             1 RES     
    2771 1            9.2920     6.0620     5.7890 1             1 RES     
    2772 1            9.0790     6.3770     5.6160 1             1 RES     
    2773 1            5.9350    -6.1460     5.2680 1             1 RES     
    2774 1            6.2100    -6.6580     5.2000 1             1 RES     
    2775 1            5.9330    -6.9840     4.8700 1             1 RES     
    2776 1           -2.2720    -8.8520     3.8100 1             1 RES     
    2777 1           -1.9360    -9.0410     4.2730 1             1 RES     
    2778 1           -1.8640    -8.6400     4.6360 1             1 RES     
    2779 1            6.5160    10.1550    11.7970 1             1 RES     
    2780 1            6.2210    10.4040    12.2340 1             1 RES     
    2781 1            5.8270    10.5960    12.1120 1             1 RES     
    2782 1           -3.7040     7.8860    -8.4580 1             1 RES     
    2783 1           -4.0070     7.6650    -8.5660 1             1 RES     
    2784 1           -3.9020     7.1680    -8.6940 1             1 RES     
    2785 1           -9.4580     1.0720    -6.1250 1             1 RES     
    2786 1           -9.5780     1.2130    -6.6680 1             1 RES     
    2787 1           -9.8910     0.9410    -6.8690 1             1 RES     
    2788 1            1.2750    -4.5660     7.7680 1             1 RES     
    2789 1            1.4070    -4.1270     7.3400 1             1 RES     
    2790 1            1.1090    -3.7800     7.2950 1             1 RES     
    2791 1          -10.8840    -0.9440     0.0390 1             1 RES     
    2792 1          -10.6970    -1.2160     0.3430 1             1 RES     
    2793 1          -10.8570    -1.6350     0.3920 1             1 RES     
    2794 1            5.0440    -5.1230     1.4150 1             1 RES     
    2795 1            4.8310    -4.7920     1.1240 1             1 RES     
    2796 1            4.4090    -4.5950     1.3810 1             1 RES     
    2797 1            6.9250    -0.4890    -9.5750 1             1 RES     
    2798 1            7.0440    -0.3430   -10.0010 1             1 RES     
    2799 1            6.7020    -0.0120   -10.2290 1             1 RES     
    2800 1           -9.2290     7.4920   -11.2860 1             1 RES     
    2801 1           -8.8780     7.5660   -11.1090 1             1 RES     
    2802 1           -8.6940     7.2800   -11.0570 1             1 RES     
    2803 1            0.1100    -4.3580     8.0660 1             1 RES     
    2804 1            0.1430    -4.1900     7.5460 1             1 RES     
    2805 1           -0.3200    -4.1070     7.3210 1             1 RES     
    2806 1            6.3320     3.3890     1.3770 1             1 RES     
    2807 1            6.3390     3.2090     0.9350 1             1 RES     
    2808 1            5.9920     3.0960     0.8580 1             1 RES     
    2809 1          -10.9290     2.4780    -9.0930 1             1 RES     
    2810 1          -10.3890     2.6340    -8.9030 1             1 RES     
    2811 1          -10.0140     2.6880    -9.3100 1             1 RES     
    2812 1            8.6260     2.1100    -8.3060 1             1 RES     
    2813 1            8.1130     1.9020    -8.1600 1             1 RES     
    2814 1            8.0990     1.4440    -8.1870 1             1 RES     
    2815 1            4.6000    -1.1890    -0.3240 1             1 RES     
    2816 1            4.6200    -1.1700    -0.8490 1             1 RES     
    2817 1            4.3040    -1.4170    -1.0270 1             1 RES     
    2818 1           11.2830     6.6340     7.0740 1             1 RES     
    2819 1           10.7650     6.5590     7.2550 1             1 RES     
    2820 1           10.6850     6.7170     7.6890 1             1 RES     
    2821 1            7.5960     4.3150    -2.4390 1             1 RES     
    2822 1            7.9220     3.9990    -2.4610 1             1 RES     
    2823 1            7.8840     3.7110    -2.2220 1             1 RES     
    2824 1            1.9750   -11.5770    -8.7440 1             1 RES     
    2825 1            1.8270   -11.9000    -8.4620 1             1 RES     
    2826 1            2.1340   -12.0800    -8.1110 1             1 RES     
    2827 1            3.6970    -8.0350    -0.7930 1             1 RES     
    2828 1            3.8660    -8.1030    -1.2400 1             1 RES     
    2829 1            3.7590    -7.5900    -1.5930 1             1 RES     
    2830 1           -5.3950     7.1720    -4.1010 1             1 RES     
    2831 1           -5.5740     7.5570    -4.5170 1             1 RES     
    2832 1           -5.2480     7.8210    -4.8520 1             1 RES     
    2833 1            8.4390    -8.2760     3.2850 1             1 RES     
    2834 1            8.7920    -8.5630     3.3510 1             1 RES     
    2835 1            8.7350    -8.8240     3.8140 1             1 RES     
    2836 1           12.3430     2.5640    -9.2540 1             1 RES     
    2837 1           11.7670     2.5950    -9.3950 1             1 RES     
    2838 1           11.7110     2.9350    -9.6700 1             1 RES     
    2839 1            6.7920    12.4460    -8.6370 1             1 RES     
    2840 1            6.7260    12.2370    -8.2350 1             1 RES     
    2841 1            6.3440    12.5020    -7.8720 1             1 RES     
    2842 1           -6.9510   -12.1990    -2.9550 1             1 RES     
    2843 1           -7.0660   -12.4800    -2.5240 1             1 RES     
    2844 1           -7.1320   -12.9370    -2.5530 1             1 RES     
    2845 1           11.3500     5.8430    10.6840 1             1 RES     
    2846 1           11.2620     5.6560    10.2300 1             1 RES     
    2847 1           11.2690     5.2530    10.1830 1             1 RES     
    2848 1            4.5390     5.5750    11.8080 1             1 RES     
    2849 1            4.5000     5.2870    12.2030 1             1 RES     
    2850 1            4.0370     5.1280    12.2830 1             1 RES     
    2851 1            8.1480     1.0630    -3.5310 1             1 RES     
    2852 1            7.8140     0.8610    -3.1720 1             1 RES     
    2853 1            7.7910     1.1120    -2.7840 1             1 RES     
    2854 1            6.8560    11.3120   -11.9490 1             1 RES     
    2855 1            6.7410    11.5330   -12.3350 1             1 RES     
    2856 1            6.9640    11.4360   -12.6630 1             1 RES     
    2857 1            1.3540    10.5270     7.3850 1             1 RES     
    2858 1            1.8300    10.7610     7.5420 1             1 RES     
    2859 1            1.9700    11.1540     7.2410 1             1 RES     
    2860 1            3.5420     3.4400    -7.6450 1             1 RES     
    2861 1            3.7390     3.8390    -7.7920 1             1 RES     
    2862 1            3.3770     4.2260    -7.8980 1             1 RES     
    2863 1            2.5850    -8.2900     3.8550 1             1 RES     
    2864 1            3.2000    -8.4300     3.8180 1             1 RES     
    2865 1            3.2790    -8.6310     3.4800 1             1 RES     
    2866 1            8.4760    11.0640     9.4780 1             1 RES     
    2867 1            8.6290    10.8550     9.2880 1             1 RES     
    2868 1            8.8130    10.5430     9.5450 1             1 RES     
    2869 1           10.4670    10.1610     9.3500 1             1 RES     
    2870 1           10.5200     9.7660     9.5790 1             1 RES     
    2871 1           10.6940     9.8390    10.0630 1             1 RES     
    2872 1           11.3680   -10.8220    -9.2790 1             1 RES     
    2873 1           11.4710   -11.2710    -9.2370 1             1 RES     
    2874 1           11.8260   -11.4250    -9.4650 1             1 RES     
    2875 1           -4.8200    -1.4420     0.4970 1             1 RES     
    2876 1           -4.5290    -1.0920     0.2590 1             1 RES     
    2877 1           -4.3580    -1.2480    -0.2240 1             1 RES     
    2878 1           -1.9010    10.5160    -6.0830 1             1 RES     
    2879 1           -2.1070    10.8180    -5.7800 1             1 RES     
    2880 1           -1.9220    11.1280    -5.6740 1             1 RES     
    2881 1           12.1760     7.6700     6.4890 1             1 RES     
    2882 1           12.4780     7.2800     6.6300 1             1 RES     
    2883 1           12.8650     7.3870     6.6080 1             1 RES     
    2884 1           -2.0330     7.1570     4.4900 1             1 RES     
    2885 1           -2.2750     6.9960     4.2880 1             1 RES     
    2886 1           -2.7790     7.0150     4.4480 1             1 RES     
    2887 1            2.3310    -5.9080    -0.9330 1             1 RES     
    2888 1            2.5280    -6.2310    -1.2480 1             1 RES     
    2889 1            2.6650    -6.0210    -1.6700 1             1 RES     
    2890 1            6.0670    -3.3820    -1.6010 1             1 RES     
    2891 1            6.4810    -3.1770    -1.7520 1             1 RES     
    2892 1            6.7550    -3.0250    -1.3930 1             1 RES     
    2893 1            2.1560    -8.2570     2.5680 1             1 RES     
    2894 1            2.1570    -8.7190     2.4670 1             1 RES     
    2895 1            1.7850    -8.8540     2.2350 1             1 RES     
    2896 1           12.4850     0.0700     5.2190 1             1 RES     
    2897 1           12.1250    -0.0830     5.0480 1             1 RES     
    2898 1           11.9310     0.2630     4.6450 1             1 RES     
    2899 1            9.7180    -1.2520   -11.0610 1             1 RES     
    2900 1            9.3120    -0.9850   -10.6420 1             1 RES     
    2901 1            9.0180    -0.8790   -10.7870 1             1 RES     
    2902 1           10.2860     5.0360    -1.3350 1             1 RES     
    2903 1           10.0220     4.6770    -1.3360 1             1 RES     
    2904 1           10.0290     4.3860    -0.9610 1             1 RES     
    2905 1           -3.4420    -2.4710    -8.8590 1             1 RES     
    2906 1           -3.2070    -2.0830    -8.8820 1             1 RES     
    2907 1           -3.4780    -1.7000    -8.8630 1             1 RES     
    2908 1           -3.9990     3.7460     8.6340 1             1 RES     
    2909 1           -4.3750     3.4150     8.8750 1             1 RES     
    2910 1           -4.4530     3.0390     8.6690 1             1 RES     
    2911 1           -6.9690     4.5130    -4.4160 1             1 RES     
    2912 1           -6.9910     4.4310    -3.8790 1             1 RES     
    2913 1           -6.9230     4.8150    -3.6620 1             1 RES     
    2914 1            1.7370   -11.3880     3.0290 1             1 RES     
    2915 1            1.9250   -11.6900     3.3190 1             1 RES     
    2916 1            2.3500   -11.5180     3.5530 1             1 RES     
    2917 1            8.4790     8.8980    -4.8600 1             1 RES     
    2918 1            8.4380     9.1760    -4.8170 1             1 RES     
    2919 1            8.2210     9.3940    -5.1460 1             1 RES     
    2920 1          -12.3830    -3.3920     4.3300 1             1 RES     
    2921 1          -12.3890    -3.0020     4.3550 1             1 RES     
    2922 1          -12.4830    -2.9000     4.7000 1             1 RES     
    2923 1            2.9970    -7.0640    -3.7460 1             1 RES     
    2924 1            3.4160    -7.0730    -3.6740 1             1 RES     
    2925 1            3.5140    -7.0140    -3.1930 1             1 RES     
    2926 1            2.1980     7.5230     8.2720 1             1 RES     
    2927 1            2.6220     7.8160     8.2750 1             1 RES     
    2928 1            2.9680     7.6060     8.1550 1             1 RES     
    2929 1           -3.8880    -4.3260     9.6060 1             1 RES     
    2930 1           -4.2710    -4.5420     9.8800 1             1 RES     
    2931 1           -4.2590    -4.4750    10.2780 1             1 RES     
    2932 1           12.4280     1.9460    10.5040 1             1 RES     
    2933 1           12.1390     2.1990    10.4310 1             1 RES     
    2934 1           11.7270     2.0640    10.5900 1             1 RES     
    2935 1           -0.3770    -8.5430     4.9310 1             1 RES     
    2936 1            0.1280    -8.2690     4.9820 1             1 RES     
    2937 1            0.3460    -8.1960     5.4450 1             1 RES     
    2938 1           -4.6890    -6.0390    11.5170 1             1 RES     
    2939 1           -4.8920    -6.0300    10.9970 1             1 RES     
    2940 1           -4.6190    -5.6720    10.6450 1             1 RES     
    2941 1           -4.2690     8.4850    -9.5490 1             1 RES     
    2942 1           -3.9600     8.1780    -9.6170 1             1 RES     
    2943 1           -4.0580     7.9270    -9.8470 1             1 RES     
    2944 1           11.3070    -2.5600     0.9380 1             1 RES     
    2945 1           11.0110    -2.1280     1.0410 1             1 RES     
    2946 1           11.1870    -1.8450     1.3670 1             1 RES     
    2947 1          -10.5060    -1.3010    -6.4420 1             1 RES     
    2948 1          -10.6740    -1.2250    -6.0850 1             1 RES     
    2949 1          -11.0610    -0.9180    -6.1250 1             1 RES     
    2950 1            1.2050     3.5700    -3.7350 1             1 RES     
    2951 1            0.8610     3.4950    -3.8160 1             1 RES     
    2952 1            0.8130     2.9680    -3.8700 1             1 RES     
    2953 1            9.9730    -6.6580    -4.7160 1             1 RES     
    2954 1            9.7280    -6.3820    -4.8320 1             1 RES     
    2955 1            9.3400    -6.4430    -4.6790 1             1 RES     
    2956 1            6.1400     6.7260    -9.4700 1             1 RES     
    2957 1            5.6740     6.8710    -9.4070 1             1 RES     
    2958 1            5.5180     6.6310    -9.2210 1             1 RES     
    2959 1           10.0980     1.4710    -0.9550 1             1 RES     
    2960 1            9.8370     1.7400    -0.9430 1             1 RES     
    2961 1            9.9160     2.1750    -1.2790 1             1 RES     
    2962 1           -8.7990    -9.7900    -4.6500 1             1 RES     
    2963 1           -9.0040   -10.0030    -4.5410 1             1 RES     
    2964 1           -9.2740   -10.2940    -4.9540 1             1 RES     
    2965 1           -8.2110   -12.0750     8.2990 1             1 RES     
    2966 1           -8.0910   -12.1420     8.7370 1             1 RES     
    2967 1           -7.9360   -12.5030     8.7760 1             1 RES     
    2968 1           -5.1170   -10.3710   -12.4300 1             1 RES     
    2969 1           -5.0740    -9.8960   -12.3980 1             1 RES     
    2970 1           -5.4050    -9.7050   -12.2010 1             1 RES     
    2971 1           -0.9520     7.2930    -1.6490 1             1 RES     
    2972 1           -0.7300     7.2220    -2.0470 1             1 RES     
    2973 1           -0.5500     6.8400    -2.0280 1             1 RES     
    2974 1            6.6520    -4.7790     2.0540 1             1 RES     
    2975 1            6.8560    -4.5110     2.3370 1             1 RES     
    2976 1            7.1080    -4.6750     2.5840 1             1 RES     
    2977 1           -9.3070     4.2740    -6.2720 1             1 RES     
    2978 1           -9.2110     4.2340    -5.6780 1             1 RES     
    2979 1           -9.0060     3.7820    -5.5350 1             1 RES     
    2980 1            6.4630    -1.6870    -1.4230 1             1 RES     
    2981 1            6.1530    -1.6860    -1.0240 1             1 RES     
    2982 1            5.6890    -1.8660    -1.1210 1             1 RES     
    2983 1           -1.5140    11.0940     9.8920 1             1 RES     
    2984 1           -1.6460    11.5720    10.2500 1             1 RES     
    2985 1           -2.0450    11.5210    10.6020 1             1 RES     
    2986 1           -9.2610    10.9950    -6.2920 1             1 RES     
    2987 1           -9.7300    10.9350    -6.1210 1             1 RES     
    2988 1          -10.1080    11.1220    -6.4260 1             1 RES     
    2989 1           -8.8440   -10.0690     5.9200 1             1 RES     
    2990 1           -8.8620   -10.0320     6.3680 1             1 RES     
    2991 1           -8.8770   -10.4470     6.5940 1             1 RES     
    2992 1            3.1430     7.4760    10.1840 1             1 RES     
    2993 1            2.7430     7.1240    10.2060 1             1 RES     
    2994 1            2.3280     7.2970    10.0430 1             1 RES     
    2995 1          -11.8270   -10.2020    -0.0680 1             1 RES     
    2996 1          -11.6660   -10.4960    -0.4750 1             1 RES     
    2997 1          -11.6830   -10.3360    -0.7960 1             1 RES     
    2998 1            0.3000    -8.3880    -6.7830 1             1 RES     
    2999 1            0.4000    -8.8100    -6.8950 1             1 RES     
    3000 1            0.7450    -8.8350    -6.9850 1             1 RES     
    3001 1            9.1250    11.1160     2.9030 1             1 RES     
    3002 1            9.1120    10.5260     2.9430 1             1 RES     
    3003 1            9.0120    10.3140     2.6020 1             1 RES     
    3004 1           -2.1600    -3.4220    -6.5210 1             1 RES     
    3005 1           -1.7260    -3.4190    -6.6040 1             1 RES     
    3006 1           -1.4330    -2.9220    -6.4630 1             1 RES     
    3007 1           -2.7400     3.5400     2.6530 1             1 RES     
    3008 1           -3.1360     3.4700     2.2650 1             1 RES     
    3009 1           -2.9870     3.4350     1.8870 1             1 RES     
    3010 1            3.2910    -2.5510     1.6920 1             1 RES     
    3011 1            3.3540    -2.7910     1.4300 1             1 RES     
    3012 1            2.9010    -2.8520     1.0950 1             1 RES     
    3013 1          -11.8330     5.7400    -6.8210 1             1 RES     
    3014 1          -11.6900     5.6960    -7.2440 1             1 RES     
    3015 1          -11.1950     5.5700    -7.3310 1             1 RES     
    3016 1           -9.6220     1.6750   -12.0640 1             1 RES     
    3017 1          -10.0240     1.6190   -11.8100 1             1 RES     
    3018 1          -10.0280     1.2630   -11.5290 1             1 RES     
    3019 1           -6.0550     0.8020    -9.2840 1             1 RES     
    3020 1           -5.4860     0.6270    -9.3430 1             1 RES     
    3021 1           -5.2740     0.5200    -8.9580 1             1 RES     
    3022 1            6.0080    -0.1750    -6.4430 1             1 RES     
    3023 1            5.7310    -0.2770    -6.1240 1             1 RES     
    3024 1            5.7570     0.0180    -5.8240 1             1 RES     
    3025 1           -0.4740    -8.8420     6.2290 1             1 RES     
    3026 1           -0.3600    -8.6980     6.4860 1             1 RES     
    3027 1           -0.4000    -8.3240     6.4290 1             1 RES     
    3028 1            0.9490   -10.1190    -3.5070 1             1 RES     
    3029 1            1.5760   -10.0180    -3.5700 1             1 RES     
    3030 1            1.8610   -10.2440    -3.2830 1             1 RES     
    3031 1           -1.4530    -8.1920     6.2970 1             1 RES     
    3032 1           -1.6780    -8.2500     6.0570 1             1 RES     
    3033 1           -1.9360    -8.0350     6.0610 1             1 RES     
    3034 1            4.9160    11.8730     7.2150 1             1 RES     
    3035 1            5.2210    11.7620     7.4380 1             1 RES     
    3036 1            5.7500    12.0070     7.3030 1             1 RES     
    3037 1           -6.4070    -4.1840    -6.6810 1             1 RES     
    3038 1           -6.6460    -4.2410    -6.3900 1             1 RES     
    3039 1           -6.9500    -3.8660    -6.2760 1             1 RES     
    3040 1            5.8110     8.0430     1.4170 1             1 RES     
    3041 1            5.9020     8.3070     1.4130 1             1 RES     
    3042 1            5.7980     8.5830     1.9020 1             1 RES     
    3043 1           -4.5050     6.0040     4.4890 1             1 RES     
    3044 1           -4.5750     6.0070     4.7910 1             1 RES     
    3045 1           -4.6460     6.5620     4.9450 1             1 RES     
    3046 1           -4.8340    -7.1420     9.3340 1             1 RES     
    3047 1           -4.8080    -7.3120     9.6860 1             1 RES     
    3048 1           -4.7160    -7.0980     9.9690 1             1 RES     
    3049 1           -0.8930    -2.9890     0.3930 1             1 RES     
    3050 1           -0.5730    -3.3080     0.2770 1             1 RES     
    3051 1           -0.7140    -3.7280     0.3040 1             1 RES     
    3052 1          -10.9340     1.7810    -7.7670 1             1 RES     
    3053 1          -10.6040     1.7910    -7.3530 1             1 RES     
    3054 1          -10.1240     1.9860    -7.5070 1             1 RES     
    3055 1           11.9370     4.7630     6.3670 1             1 RES     
    3056 1           11.4480     4.5350     6.3450 1             1 RES     
    3057 1           11.4040     4.0700     6.6390 1             1 RES     
    3058 1           -1.9130    -5.9380     4.2130 1             1 RES     
    3059 1           -1.4730    -6.0290     4.0910 1             1 RES     
    3060 1           -1.2870    -5.7340     3.9980 1             1 RES     
    3061 1            0.7100    -3.6030    -9.7340 1             1 RES     
    3062 1            0.9820    -3.6410    -9.4940 1             1 RES     
    3063 1            1.3240    -3.4210    -9.6170 1             1 RES     
    3064 1            5.5700     4.3990    -1.9410 1             1 RES     
    3065 1            5.9870     4.3600    -1.8680 1             1 RES     
    3066 1            6.2290     3.7600    -1.7590 1             1 RES     
    3067 1           -6.5870     8.0550    -5.6940 1             1 RES     
    3068 1           -6.1780     7.9160    -5.4770 1             1 RES     
    3069 1           -5.9990     7.5300    -5.6490 1             1 RES     
    3070 1            6.9880     7.7160     5.1130 1             1 RES     
    3071 1            7.4080     7.4990     5.2220 1             1 RES     
    3072 1            7.6400     7.7360     5.2090 1             1 RES     
@<TRIPOS>BOND
@<TRIPOS>SUBSTRUCTURE
       1 RES             1 RESIDUE    0 **** ROOT      0
